/*---------------------------------------------------------------------------*\
| =========                 |                                                 |
| \\      /  F ield         | OpenFOAM: The Open Source CFD Toolbox           |
|  \\    /   O peration     | Version:  2212                                  |
|   \\  /    A nd           | Website:  www.openfoam.com                      |
|    \\/     M anipulation  |                                                 |
\*---------------------------------------------------------------------------*/
Build  : _70874860-20230612 OPENFOAM=2212 patch=230612 version=2212
Arch   : "LSB;label=32;scalar=64"
Exec   : ./vortiFoam -parallel -noFunctionObjects
Date   : Aug 21 2023
Time   : 10:54:04
Host   : Valinor-GL553VD
PID    : 18238
I/O    : uncollated
Case   : /home/yaevon/mhpc/lessons_phd/005_macfd/exercises/vortexMerge_vortiFoam
nProcs : 4
Hosts  :
(
    (Valinor-GL553VD 4)
)
Pstream initialized with:
    floatTransfer      : 0
    nProcsSimpleSum    : 0
    commsType          : nonBlocking
    polling iterations : 0
trapFpe: Floating point exception trapping enabled (FOAM_SIGFPE).
fileModificationChecking : Monitoring run-time modified files using timeStampMaster (fileModificationSkew 5, maxFileModificationPolls 20)
allowSystemOperations : Allowing user-supplied system call operations

// * * * * * * * * * * * * * * * * * * * * * * * * * * * * * * * * * * * * * //
Create time

Create mesh for time = 0


PISO: Operating solver in PISO mode

Reading transportProperties

Reading field p

Reading field U

Reading field omega

Reading field psi

Reading/calculating face flux field phi


pRefCell 0

pRefValue 0

Starting time loop

Time = 0.01

Courant Number mean: 0 max: 0
DICPCG:  Solving for p, Initial residual = 0, Final residual = 0, No Iterations 0
smoothSolver:  Solving for omega, Initial residual = 2.75359e-05, Final residual = 5.64517e-08, No Iterations 1
DICPCG:  Solving for psi, Initial residual = 1, Final residual = 0.0443376, No Iterations 89
time step continuity errors : sum local = 0, global = 0, cumulative = 0
ExecutionTime = 0.33 s  ClockTime = 0 s

Time = 0.02

Courant Number mean: 0 max: 0
DICPCG:  Solving for p, Initial residual = 0, Final residual = 0, No Iterations 0
smoothSolver:  Solving for omega, Initial residual = 2.75325e-05, Final residual = 5.64505e-08, No Iterations 1
DICPCG:  Solving for psi, Initial residual = 0.000158734, Final residual = 7.87636e-06, No Iterations 31
time step continuity errors : sum local = 3.29078e-06, global = -1.94671e-20, cumulative = -1.94671e-20
ExecutionTime = 0.37 s  ClockTime = 1 s

Time = 0.03

Courant Number mean: 0.0649453 max: 0.142164
DICPCG:  Solving for p, Initial residual = 1, Final residual = 0.0472566, No Iterations 98
smoothSolver:  Solving for omega, Initial residual = 0.000565772, Final residual = 6.32529e-07, No Iterations 1
DICPCG:  Solving for psi, Initial residual = 1.28002e-05, Final residual = 9.64409e-07, No Iterations 53
time step continuity errors : sum local = 3.29429e-06, global = -2.17351e-20, cumulative = -4.12022e-20
ExecutionTime = 0.49 s  ClockTime = 1 s

Time = 0.04

Courant Number mean: 0.0649394 max: 0.142156
DICPCG:  Solving for p, Initial residual = 0.0236617, Final residual = 0.00114977, No Iterations 246
smoothSolver:  Solving for omega, Initial residual = 0.000565956, Final residual = 6.36444e-07, No Iterations 1
DICPCG:  Solving for psi, Initial residual = 7.21864e-06, Final residual = 9.84059e-07, No Iterations 51
time step continuity errors : sum local = 3.29377e-06, global = -1.68211e-20, cumulative = -5.80233e-20
ExecutionTime = 0.69 s  ClockTime = 1 s

Time = 0.05

Courant Number mean: 0.0649382 max: 0.14217
DICPCG:  Solving for p, Initial residual = 0.00184421, Final residual = 8.45646e-05, No Iterations 64
smoothSolver:  Solving for omega, Initial residual = 0.000565948, Final residual = 6.38895e-07, No Iterations 1
DICPCG:  Solving for psi, Initial residual = 7.25984e-06, Final residual = 9.10252e-07, No Iterations 50
time step continuity errors : sum local = 3.29383e-06, global = -4.20441e-20, cumulative = -1.00067e-19
ExecutionTime = 0.78 s  ClockTime = 1 s

Time = 0.06

Courant Number mean: 0.0649379 max: 0.142186
DICPCG:  Solving for p, Initial residual = 0.00111416, Final residual = 5.25441e-05, No Iterations 87
smoothSolver:  Solving for omega, Initial residual = 0.0005659, Final residual = 6.41403e-07, No Iterations 1
DICPCG:  Solving for psi, Initial residual = 7.22144e-06, Final residual = 9.95655e-07, No Iterations 50
time step continuity errors : sum local = 3.29379e-06, global = -2.68725e-20, cumulative = -1.2694e-19
ExecutionTime = 0.9 s  ClockTime = 1 s

Time = 0.07

Courant Number mean: 0.0649376 max: 0.142203
DICPCG:  Solving for p, Initial residual = 0.00108799, Final residual = 5.14817e-05, No Iterations 87
smoothSolver:  Solving for omega, Initial residual = 0.000565864, Final residual = 6.44108e-07, No Iterations 1
DICPCG:  Solving for psi, Initial residual = 7.27143e-06, Final residual = 9.83154e-07, No Iterations 49
time step continuity errors : sum local = 3.29385e-06, global = -5.15457e-21, cumulative = -1.32094e-19
ExecutionTime = 1.01 s  ClockTime = 1 s

Time = 0.08

Courant Number mean: 0.0649374 max: 0.142219
DICPCG:  Solving for p, Initial residual = 0.00108875, Final residual = 5.37146e-05, No Iterations 87
smoothSolver:  Solving for omega, Initial residual = 0.000565839, Final residual = 6.46971e-07, No Iterations 1
DICPCG:  Solving for psi, Initial residual = 7.27216e-06, Final residual = 8.52699e-07, No Iterations 52
time step continuity errors : sum local = 3.2938e-06, global = -8.59095e-21, cumulative = -1.40685e-19
ExecutionTime = 1.13 s  ClockTime = 1 s

Time = 0.09

Courant Number mean: 0.0649372 max: 0.142235
DICPCG:  Solving for p, Initial residual = 0.00109093, Final residual = 5.19364e-05, No Iterations 88
smoothSolver:  Solving for omega, Initial residual = 0.000565813, Final residual = 6.49959e-07, No Iterations 1
DICPCG:  Solving for psi, Initial residual = 7.18127e-06, Final residual = 8.85078e-07, No Iterations 52
time step continuity errors : sum local = 3.29379e-06, global = -2.09619e-21, cumulative = -1.42782e-19
ExecutionTime = 1.24 s  ClockTime = 1 s

Time = 0.1

Courant Number mean: 0.064937 max: 0.14225
DICPCG:  Solving for p, Initial residual = 0.0010892, Final residual = 5.36661e-05, No Iterations 89
smoothSolver:  Solving for omega, Initial residual = 0.000565783, Final residual = 6.53016e-07, No Iterations 1
DICPCG:  Solving for psi, Initial residual = 7.18e-06, Final residual = 8.21746e-07, No Iterations 51
time step continuity errors : sum local = 3.2938e-06, global = -1.75599e-20, cumulative = -1.60341e-19
ExecutionTime = 1.35 s  ClockTime = 1 s

Time = 0.11

Courant Number mean: 0.064937 max: 0.142265
DICPCG:  Solving for p, Initial residual = 0.00108771, Final residual = 5.10916e-05, No Iterations 91
smoothSolver:  Solving for omega, Initial residual = 0.00056575, Final residual = 6.56137e-07, No Iterations 1
DICPCG:  Solving for psi, Initial residual = 7.17104e-06, Final residual = 9.99951e-07, No Iterations 50
time step continuity errors : sum local = 3.2938e-06, global = -1.93812e-20, cumulative = -1.79723e-19
ExecutionTime = 1.47 s  ClockTime = 2 s

Time = 0.12

Courant Number mean: 0.064937 max: 0.14228
DICPCG:  Solving for p, Initial residual = 0.00108859, Final residual = 5.21704e-05, No Iterations 92
smoothSolver:  Solving for omega, Initial residual = 0.000565713, Final residual = 6.59285e-07, No Iterations 1
DICPCG:  Solving for psi, Initial residual = 7.28379e-06, Final residual = 7.95157e-07, No Iterations 53
time step continuity errors : sum local = 3.29376e-06, global = -2.08932e-20, cumulative = -2.00616e-19
ExecutionTime = 1.59 s  ClockTime = 2 s

Time = 0.13

Courant Number mean: 0.0649371 max: 0.142295
DICPCG:  Solving for p, Initial residual = 0.00109005, Final residual = 5.30503e-05, No Iterations 93
smoothSolver:  Solving for omega, Initial residual = 0.000565673, Final residual = 6.62477e-07, No Iterations 1
DICPCG:  Solving for psi, Initial residual = 7.12166e-06, Final residual = 8.84779e-07, No Iterations 52
time step continuity errors : sum local = 3.29377e-06, global = -4.53602e-21, cumulative = -2.05152e-19
ExecutionTime = 1.71 s  ClockTime = 2 s

Time = 0.14

Courant Number mean: 0.0649372 max: 0.142309
DICPCG:  Solving for p, Initial residual = 0.00108719, Final residual = 5.26589e-05, No Iterations 97
smoothSolver:  Solving for omega, Initial residual = 0.000565629, Final residual = 6.65683e-07, No Iterations 1
DICPCG:  Solving for psi, Initial residual = 7.1996e-06, Final residual = 9.3177e-07, No Iterations 51
time step continuity errors : sum local = 3.29376e-06, global = 5.03429e-21, cumulative = -2.00118e-19
ExecutionTime = 1.83 s  ClockTime = 2 s

Time = 0.15

Courant Number mean: 0.0649373 max: 0.142323
DICPCG:  Solving for p, Initial residual = 0.00108989, Final residual = 5.34079e-05, No Iterations 240
smoothSolver:  Solving for omega, Initial residual = 0.000565581, Final residual = 6.68909e-07, No Iterations 1
DICPCG:  Solving for psi, Initial residual = 7.23683e-06, Final residual = 9.62629e-07, No Iterations 50
time step continuity errors : sum local = 3.29375e-06, global = 2.15461e-20, cumulative = -1.78571e-19
ExecutionTime = 2.02 s  ClockTime = 2 s

Time = 0.16

Courant Number mean: 0.0649376 max: 0.142337
DICPCG:  Solving for p, Initial residual = 0.00109521, Final residual = 5.31251e-05, No Iterations 85
smoothSolver:  Solving for omega, Initial residual = 0.00056553, Final residual = 6.72152e-07, No Iterations 1
DICPCG:  Solving for psi, Initial residual = 7.27377e-06, Final residual = 9.95677e-07, No Iterations 50
time step continuity errors : sum local = 3.29376e-06, global = 7.50849e-21, cumulative = -1.71063e-19
ExecutionTime = 2.14 s  ClockTime = 2 s

Time = 0.17

Courant Number mean: 0.0649379 max: 0.14235
DICPCG:  Solving for p, Initial residual = 0.00109266, Final residual = 5.17065e-05, No Iterations 86
smoothSolver:  Solving for omega, Initial residual = 0.000565475, Final residual = 6.75397e-07, No Iterations 1
DICPCG:  Solving for psi, Initial residual = 7.30435e-06, Final residual = 9.95138e-07, No Iterations 50
time step continuity errors : sum local = 3.29376e-06, global = -3.16147e-21, cumulative = -1.74224e-19
ExecutionTime = 2.25 s  ClockTime = 2 s

Time = 0.18

Courant Number mean: 0.0649382 max: 0.142364
DICPCG:  Solving for p, Initial residual = 0.00109147, Final residual = 5.31445e-05, No Iterations 86
smoothSolver:  Solving for omega, Initial residual = 0.000565417, Final residual = 6.78669e-07, No Iterations 1
DICPCG:  Solving for psi, Initial residual = 7.28282e-06, Final residual = 9.41028e-07, No Iterations 52
time step continuity errors : sum local = 3.29374e-06, global = -1.60823e-20, cumulative = -1.90307e-19
ExecutionTime = 2.36 s  ClockTime = 3 s

Time = 0.19

Courant Number mean: 0.0649386 max: 0.142377
DICPCG:  Solving for p, Initial residual = 0.0010934, Final residual = 5.29265e-05, No Iterations 87
smoothSolver:  Solving for omega, Initial residual = 0.000565359, Final residual = 6.81954e-07, No Iterations 1
DICPCG:  Solving for psi, Initial residual = 7.23625e-06, Final residual = 9.48504e-07, No Iterations 52
time step continuity errors : sum local = 3.29372e-06, global = -7.25076e-21, cumulative = -1.97557e-19
ExecutionTime = 2.48 s  ClockTime = 3 s

Time = 0.2

Courant Number mean: 0.064939 max: 0.142389
DICPCG:  Solving for p, Initial residual = 0.00109219, Final residual = 5.12822e-05, No Iterations 88
smoothSolver:  Solving for omega, Initial residual = 0.00056531, Final residual = 6.85239e-07, No Iterations 1
DICPCG:  Solving for psi, Initial residual = 7.2612e-06, Final residual = 9.01353e-07, No Iterations 51
time step continuity errors : sum local = 3.29374e-06, global = -1.0859e-20, cumulative = -2.08416e-19
ExecutionTime = 2.59 s  ClockTime = 3 s

Time = 0.21

Courant Number mean: 0.0649396 max: 0.142402
DICPCG:  Solving for p, Initial residual = 0.00109689, Final residual = 5.4354e-05, No Iterations 88
smoothSolver:  Solving for omega, Initial residual = 0.000565267, Final residual = 6.88541e-07, No Iterations 1
DICPCG:  Solving for psi, Initial residual = 7.21929e-06, Final residual = 9.21177e-07, No Iterations 51
time step continuity errors : sum local = 3.29371e-06, global = -2.6546e-20, cumulative = -2.34962e-19
ExecutionTime = 2.71 s  ClockTime = 3 s

Time = 0.22

Courant Number mean: 0.0649403 max: 0.142414
DICPCG:  Solving for p, Initial residual = 0.00109516, Final residual = 4.9945e-05, No Iterations 91
smoothSolver:  Solving for omega, Initial residual = 0.000565229, Final residual = 6.91862e-07, No Iterations 1
DICPCG:  Solving for psi, Initial residual = 7.22144e-06, Final residual = 9.7977e-07, No Iterations 51
time step continuity errors : sum local = 3.29371e-06, global = -7.80058e-21, cumulative = -2.42763e-19
ExecutionTime = 2.83 s  ClockTime = 3 s

Time = 0.23

Courant Number mean: 0.0649411 max: 0.142426
DICPCG:  Solving for p, Initial residual = 0.00109358, Final residual = 5.38898e-05, No Iterations 91
smoothSolver:  Solving for omega, Initial residual = 0.000565194, Final residual = 6.95182e-07, No Iterations 1
DICPCG:  Solving for psi, Initial residual = 7.26376e-06, Final residual = 8.57683e-07, No Iterations 50
time step continuity errors : sum local = 3.2937e-06, global = 1.28864e-21, cumulative = -2.41474e-19
ExecutionTime = 2.94 s  ClockTime = 3 s

Time = 0.24

Courant Number mean: 0.0649421 max: 0.142437
DICPCG:  Solving for p, Initial residual = 0.00109322, Final residual = 5.46545e-05, No Iterations 92
smoothSolver:  Solving for omega, Initial residual = 0.000565161, Final residual = 6.98507e-07, No Iterations 1
DICPCG:  Solving for psi, Initial residual = 7.1837e-06, Final residual = 9.9723e-07, No Iterations 52
time step continuity errors : sum local = 3.2937e-06, global = -1.54637e-20, cumulative = -2.56938e-19
ExecutionTime = 3.06 s  ClockTime = 3 s

Time = 0.25

Courant Number mean: 0.0649431 max: 0.142449
DICPCG:  Solving for p, Initial residual = 0.00109515, Final residual = 5.47089e-05, No Iterations 94
smoothSolver:  Solving for omega, Initial residual = 0.000565131, Final residual = 7.01844e-07, No Iterations 1
DICPCG:  Solving for psi, Initial residual = 7.25198e-06, Final residual = 9.34624e-07, No Iterations 52
time step continuity errors : sum local = 3.2937e-06, global = 4.10647e-21, cumulative = -2.52832e-19
ExecutionTime = 3.18 s  ClockTime = 3 s

Time = 0.26

Courant Number mean: 0.0649442 max: 0.142459
DICPCG:  Solving for p, Initial residual = 0.00109306, Final residual = 5.25986e-05, No Iterations 241
smoothSolver:  Solving for omega, Initial residual = 0.000565101, Final residual = 7.05199e-07, No Iterations 1
DICPCG:  Solving for psi, Initial residual = 7.22877e-06, Final residual = 9.47483e-07, No Iterations 51
time step continuity errors : sum local = 3.2937e-06, global = -1.49998e-20, cumulative = -2.67831e-19
ExecutionTime = 3.38 s  ClockTime = 4 s

Time = 0.27

Courant Number mean: 0.0649453 max: 0.142471
DICPCG:  Solving for p, Initial residual = 0.00109726, Final residual = 5.39902e-05, No Iterations 85
smoothSolver:  Solving for omega, Initial residual = 0.000565072, Final residual = 7.08561e-07, No Iterations 1
DICPCG:  Solving for psi, Initial residual = 7.23478e-06, Final residual = 8.70509e-07, No Iterations 53
time step continuity errors : sum local = 3.29368e-06, global = -3.17521e-20, cumulative = -2.99583e-19
ExecutionTime = 3.5 s  ClockTime = 4 s

Time = 0.28

Courant Number mean: 0.0649465 max: 0.142486
DICPCG:  Solving for p, Initial residual = 0.0010983, Final residual = 5.21904e-05, No Iterations 86
smoothSolver:  Solving for omega, Initial residual = 0.000565042, Final residual = 7.11917e-07, No Iterations 1
DICPCG:  Solving for psi, Initial residual = 7.16716e-06, Final residual = 9.77211e-07, No Iterations 51
time step continuity errors : sum local = 3.29369e-06, global = -1.95358e-20, cumulative = -3.19119e-19
ExecutionTime = 3.63 s  ClockTime = 4 s

Time = 0.29

Courant Number mean: 0.0649476 max: 0.142502
DICPCG:  Solving for p, Initial residual = 0.00109748, Final residual = 5.42661e-05, No Iterations 86
smoothSolver:  Solving for omega, Initial residual = 0.000565013, Final residual = 7.1527e-07, No Iterations 1
DICPCG:  Solving for psi, Initial residual = 7.27095e-06, Final residual = 9.54186e-07, No Iterations 52
time step continuity errors : sum local = 3.29369e-06, global = -1.59448e-20, cumulative = -3.35064e-19
ExecutionTime = 3.75 s  ClockTime = 4 s

Time = 0.3

Courant Number mean: 0.0649489 max: 0.142518
DICPCG:  Solving for p, Initial residual = 0.00109922, Final residual = 5.26177e-05, No Iterations 87
smoothSolver:  Solving for omega, Initial residual = 0.000564981, Final residual = 7.18641e-07, No Iterations 1
DICPCG:  Solving for psi, Initial residual = 7.21876e-06, Final residual = 9.17852e-07, No Iterations 53
time step continuity errors : sum local = 3.29368e-06, global = -7.90367e-21, cumulative = -3.42968e-19
ExecutionTime = 3.88 s  ClockTime = 4 s

Time = 0.31

Courant Number mean: 0.0649502 max: 0.142534
DICPCG:  Solving for p, Initial residual = 0.00109589, Final residual = 5.46369e-05, No Iterations 87
smoothSolver:  Solving for omega, Initial residual = 0.00056495, Final residual = 7.22015e-07, No Iterations 1
DICPCG:  Solving for psi, Initial residual = 7.19389e-06, Final residual = 8.18266e-07, No Iterations 52
time step continuity errors : sum local = 3.29371e-06, global = -3.46215e-20, cumulative = -3.77589e-19
ExecutionTime = 4 s  ClockTime = 4 s

Time = 0.32

Courant Number mean: 0.0649515 max: 0.14255
DICPCG:  Solving for p, Initial residual = 0.00109846, Final residual = 5.34131e-05, No Iterations 88
smoothSolver:  Solving for omega, Initial residual = 0.000564917, Final residual = 7.25392e-07, No Iterations 1
DICPCG:  Solving for psi, Initial residual = 7.14862e-06, Final residual = 8.85629e-07, No Iterations 52
time step continuity errors : sum local = 3.29369e-06, global = -5.61848e-21, cumulative = -3.83208e-19
ExecutionTime = 4.13 s  ClockTime = 4 s

Time = 0.33

Courant Number mean: 0.0649529 max: 0.142566
DICPCG:  Solving for p, Initial residual = 0.001096, Final residual = 5.40219e-05, No Iterations 89
smoothSolver:  Solving for omega, Initial residual = 0.000564883, Final residual = 7.28772e-07, No Iterations 1
DICPCG:  Solving for psi, Initial residual = 7.20251e-06, Final residual = 9.36068e-07, No Iterations 51
time step continuity errors : sum local = 3.29372e-06, global = -4.41231e-20, cumulative = -4.27331e-19
ExecutionTime = 4.26 s  ClockTime = 4 s

Time = 0.34

Courant Number mean: 0.0649543 max: 0.142581
DICPCG:  Solving for p, Initial residual = 0.0010971, Final residual = 5.30944e-05, No Iterations 91
smoothSolver:  Solving for omega, Initial residual = 0.000564848, Final residual = 7.32152e-07, No Iterations 1
DICPCG:  Solving for psi, Initial residual = 7.22037e-06, Final residual = 9.59348e-07, No Iterations 51
time step continuity errors : sum local = 3.29372e-06, global = -1.35565e-20, cumulative = -4.40887e-19
ExecutionTime = 4.39 s  ClockTime = 5 s

Time = 0.35

Courant Number mean: 0.0649557 max: 0.142596
DICPCG:  Solving for p, Initial residual = 0.0010973, Final residual = 5.37354e-05, No Iterations 92
smoothSolver:  Solving for omega, Initial residual = 0.000564814, Final residual = 7.35535e-07, No Iterations 1
DICPCG:  Solving for psi, Initial residual = 7.25436e-06, Final residual = 9.91237e-07, No Iterations 50
time step continuity errors : sum local = 3.29373e-06, global = -1.10651e-20, cumulative = -4.51953e-19
ExecutionTime = 4.51 s  ClockTime = 5 s

Time = 0.36

Courant Number mean: 0.0649571 max: 0.142611
DICPCG:  Solving for p, Initial residual = 0.00109545, Final residual = 5.45087e-05, No Iterations 95
smoothSolver:  Solving for omega, Initial residual = 0.000564779, Final residual = 7.38922e-07, No Iterations 1
DICPCG:  Solving for psi, Initial residual = 7.23824e-06, Final residual = 9.88462e-07, No Iterations 50
time step continuity errors : sum local = 3.29372e-06, global = -1.28349e-20, cumulative = -4.64787e-19
ExecutionTime = 4.62 s  ClockTime = 5 s

Time = 0.37

Courant Number mean: 0.0649586 max: 0.142626
DICPCG:  Solving for p, Initial residual = 0.00109378, Final residual = 5.0786e-05, No Iterations 242
smoothSolver:  Solving for omega, Initial residual = 0.000564745, Final residual = 7.42316e-07, No Iterations 1
DICPCG:  Solving for psi, Initial residual = 7.27431e-06, Final residual = 8.4707e-07, No Iterations 53
time step continuity errors : sum local = 3.29374e-06, global = -3.38483e-21, cumulative = -4.68172e-19
ExecutionTime = 4.84 s  ClockTime = 5 s

Time = 0.38

Courant Number mean: 0.06496 max: 0.14264
DICPCG:  Solving for p, Initial residual = 0.00110007, Final residual = 5.41134e-05, No Iterations 85
smoothSolver:  Solving for omega, Initial residual = 0.000564709, Final residual = 7.45701e-07, No Iterations 1
DICPCG:  Solving for psi, Initial residual = 7.11816e-06, Final residual = 9.55828e-07, No Iterations 52
time step continuity errors : sum local = 3.29374e-06, global = -1.72163e-20, cumulative = -4.85388e-19
ExecutionTime = 4.98 s  ClockTime = 5 s

Time = 0.39

Courant Number mean: 0.0649615 max: 0.142654
DICPCG:  Solving for p, Initial residual = 0.00110115, Final residual = 5.25459e-05, No Iterations 86
smoothSolver:  Solving for omega, Initial residual = 0.000564674, Final residual = 7.49094e-07, No Iterations 1
DICPCG:  Solving for psi, Initial residual = 7.2365e-06, Final residual = 8.6861e-07, No Iterations 52
time step continuity errors : sum local = 3.29374e-06, global = -1.8041e-20, cumulative = -5.03429e-19
ExecutionTime = 5.13 s  ClockTime = 5 s

Time = 0.4

Courant Number mean: 0.064963 max: 0.142668
DICPCG:  Solving for p, Initial residual = 0.0010988, Final residual = 5.43726e-05, No Iterations 86
smoothSolver:  Solving for omega, Initial residual = 0.000564636, Final residual = 7.52486e-07, No Iterations 1
DICPCG:  Solving for psi, Initial residual = 7.17748e-06, Final residual = 8.41278e-07, No Iterations 51
time step continuity errors : sum local = 3.29375e-06, global = 6.70094e-21, cumulative = -4.96729e-19
ExecutionTime = 5.25 s  ClockTime = 5 s

Time = 0.41

Courant Number mean: 0.0649646 max: 0.142681
DICPCG:  Solving for p, Initial residual = 0.00110129, Final residual = 5.24031e-05, No Iterations 87
smoothSolver:  Solving for omega, Initial residual = 0.000564598, Final residual = 7.55878e-07, No Iterations 1
DICPCG:  Solving for psi, Initial residual = 7.15098e-06, Final residual = 9.9488e-07, No Iterations 51
time step continuity errors : sum local = 3.29376e-06, global = -1.48452e-20, cumulative = -5.11574e-19
ExecutionTime = 5.38 s  ClockTime = 6 s

Time = 0.42

Courant Number mean: 0.0649661 max: 0.142695
DICPCG:  Solving for p, Initial residual = 0.00109538, Final residual = 5.08132e-05, No Iterations 88
smoothSolver:  Solving for omega, Initial residual = 0.000564558, Final residual = 7.59272e-07, No Iterations 1
DICPCG:  Solving for psi, Initial residual = 7.25164e-06, Final residual = 9.89251e-07, No Iterations 50
time step continuity errors : sum local = 3.29376e-06, global = -1.16665e-20, cumulative = -5.2324e-19
ExecutionTime = 5.51 s  ClockTime = 6 s

Time = 0.43

Courant Number mean: 0.0649677 max: 0.142707
DICPCG:  Solving for p, Initial residual = 0.00109832, Final residual = 5.27596e-05, No Iterations 88
smoothSolver:  Solving for omega, Initial residual = 0.000564519, Final residual = 7.6267e-07, No Iterations 1
DICPCG:  Solving for psi, Initial residual = 7.26133e-06, Final residual = 9.55108e-07, No Iterations 50
time step continuity errors : sum local = 3.29377e-06, global = 1.01373e-21, cumulative = -5.22226e-19
ExecutionTime = 5.65 s  ClockTime = 6 s

Time = 0.44

Courant Number mean: 0.0649693 max: 0.14272
DICPCG:  Solving for p, Initial residual = 0.00109679, Final residual = 5.47892e-05, No Iterations 89
smoothSolver:  Solving for omega, Initial residual = 0.000564489, Final residual = 7.66068e-07, No Iterations 1
DICPCG:  Solving for psi, Initial residual = 7.23469e-06, Final residual = 7.40139e-07, No Iterations 53
time step continuity errors : sum local = 3.29378e-06, global = -1.61682e-20, cumulative = -5.38395e-19
ExecutionTime = 5.79 s  ClockTime = 6 s

Time = 0.45

Courant Number mean: 0.064971 max: 0.142733
DICPCG:  Solving for p, Initial residual = 0.00109967, Final residual = 5.33043e-05, No Iterations 91
smoothSolver:  Solving for omega, Initial residual = 0.000564463, Final residual = 7.6947e-07, No Iterations 1
DICPCG:  Solving for psi, Initial residual = 7.07821e-06, Final residual = 7.40449e-07, No Iterations 53
time step continuity errors : sum local = 3.29377e-06, global = -1.0584e-20, cumulative = -5.48979e-19
ExecutionTime = 5.93 s  ClockTime = 6 s

Time = 0.46

Courant Number mean: 0.0649726 max: 0.142745
DICPCG:  Solving for p, Initial residual = 0.00110003, Final residual = 5.44758e-05, No Iterations 92
smoothSolver:  Solving for omega, Initial residual = 0.000564438, Final residual = 7.72869e-07, No Iterations 1
DICPCG:  Solving for psi, Initial residual = 7.09333e-06, Final residual = 8.06424e-07, No Iterations 52
time step continuity errors : sum local = 3.29377e-06, global = -1.34019e-20, cumulative = -5.62381e-19
ExecutionTime = 6.07 s  ClockTime = 6 s

Time = 0.47

Courant Number mean: 0.0649742 max: 0.142757
DICPCG:  Solving for p, Initial residual = 0.00109604, Final residual = 5.21264e-05, No Iterations 97
smoothSolver:  Solving for omega, Initial residual = 0.000564413, Final residual = 7.76265e-07, No Iterations 1
DICPCG:  Solving for psi, Initial residual = 7.12783e-06, Final residual = 9.49518e-07, No Iterations 52
time step continuity errors : sum local = 3.29378e-06, global = -1.77833e-20, cumulative = -5.80164e-19
ExecutionTime = 6.2 s  ClockTime = 6 s

Time = 0.48

Courant Number mean: 0.0649759 max: 0.142768
DICPCG:  Solving for p, Initial residual = 0.00109321, Final residual = 5.28104e-05, No Iterations 242
smoothSolver:  Solving for omega, Initial residual = 0.000564391, Final residual = 7.79662e-07, No Iterations 1
DICPCG:  Solving for psi, Initial residual = 7.21592e-06, Final residual = 9.78411e-07, No Iterations 51
time step continuity errors : sum local = 3.29379e-06, global = -9.17513e-21, cumulative = -5.89339e-19
ExecutionTime = 6.43 s  ClockTime = 7 s

Time = 0.49

Courant Number mean: 0.0649776 max: 0.14278
DICPCG:  Solving for p, Initial residual = 0.00110082, Final residual = 5.43312e-05, No Iterations 85
smoothSolver:  Solving for omega, Initial residual = 0.000564371, Final residual = 7.83058e-07, No Iterations 1
DICPCG:  Solving for psi, Initial residual = 7.23912e-06, Final residual = 9.6078e-07, No Iterations 51
time step continuity errors : sum local = 3.29379e-06, global = -2.43124e-20, cumulative = -6.13651e-19
ExecutionTime = 6.54 s  ClockTime = 7 s

Time = 0.5

Courant Number mean: 0.0649792 max: 0.142791
DICPCG:  Solving for p, Initial residual = 0.00109998, Final residual = 5.36489e-05, No Iterations 86
smoothSolver:  Solving for omega, Initial residual = 0.000564351, Final residual = 7.86458e-07, No Iterations 1
DICPCG:  Solving for psi, Initial residual = 7.22669e-06, Final residual = 9.77572e-07, No Iterations 50
time step continuity errors : sum local = 3.2938e-06, global = -1.73193e-20, cumulative = -6.30971e-19
ExecutionTime = 6.65 s  ClockTime = 7 s

Time = 0.51

Courant Number mean: 0.064981 max: 0.142802
DICPCG:  Solving for p, Initial residual = 0.00110124, Final residual = 5.12215e-05, No Iterations 87
smoothSolver:  Solving for omega, Initial residual = 0.000564332, Final residual = 7.8985e-07, No Iterations 1
DICPCG:  Solving for psi, Initial residual = 7.22581e-06, Final residual = 9.54949e-07, No Iterations 50
time step continuity errors : sum local = 3.2938e-06, global = 5.53257e-21, cumulative = -6.25438e-19
ExecutionTime = 6.78 s  ClockTime = 7 s

Time = 0.52

Courant Number mean: 0.0649827 max: 0.142813
DICPCG:  Solving for p, Initial residual = 0.0011015, Final residual = 5.30858e-05, No Iterations 87
smoothSolver:  Solving for omega, Initial residual = 0.000564314, Final residual = 7.93259e-07, No Iterations 1
DICPCG:  Solving for psi, Initial residual = 7.23021e-06, Final residual = 9.9658e-07, No Iterations 52
time step continuity errors : sum local = 3.29381e-06, global = -3.16319e-20, cumulative = -6.5707e-19
ExecutionTime = 6.89 s  ClockTime = 7 s

Time = 0.53

Courant Number mean: 0.0649845 max: 0.142823
DICPCG:  Solving for p, Initial residual = 0.00110756, Final residual = 5.12298e-05, No Iterations 88
smoothSolver:  Solving for omega, Initial residual = 0.000564297, Final residual = 7.96675e-07, No Iterations 1
DICPCG:  Solving for psi, Initial residual = 7.22796e-06, Final residual = 9.383e-07, No Iterations 52
time step continuity errors : sum local = 3.2938e-06, global = -8.38476e-21, cumulative = -6.65455e-19
ExecutionTime = 7.02 s  ClockTime = 7 s

Time = 0.54

Courant Number mean: 0.0649864 max: 0.142833
DICPCG:  Solving for p, Initial residual = 0.00110282, Final residual = 5.41492e-05, No Iterations 88
smoothSolver:  Solving for omega, Initial residual = 0.000564281, Final residual = 8.00092e-07, No Iterations 1
DICPCG:  Solving for psi, Initial residual = 7.23667e-06, Final residual = 9.84276e-07, No Iterations 51
time step continuity errors : sum local = 3.29381e-06, global = -1.06356e-20, cumulative = -6.7609e-19
ExecutionTime = 7.13 s  ClockTime = 7 s

Time = 0.55

Courant Number mean: 0.0649883 max: 0.142843
DICPCG:  Solving for p, Initial residual = 0.00110182, Final residual = 5.48876e-05, No Iterations 89
smoothSolver:  Solving for omega, Initial residual = 0.000564264, Final residual = 8.03508e-07, No Iterations 1
DICPCG:  Solving for psi, Initial residual = 7.25176e-06, Final residual = 9.24097e-07, No Iterations 51
time step continuity errors : sum local = 3.29381e-06, global = -1.63572e-20, cumulative = -6.92447e-19
ExecutionTime = 7.26 s  ClockTime = 7 s

Time = 0.56

Courant Number mean: 0.0649903 max: 0.142852
DICPCG:  Solving for p, Initial residual = 0.00110179, Final residual = 5.42556e-05, No Iterations 91
smoothSolver:  Solving for omega, Initial residual = 0.000564247, Final residual = 8.06927e-07, No Iterations 1
DICPCG:  Solving for psi, Initial residual = 7.21201e-06, Final residual = 9.99644e-07, No Iterations 50
time step continuity errors : sum local = 3.29381e-06, global = -6.52912e-22, cumulative = -6.931e-19
ExecutionTime = 7.37 s  ClockTime = 8 s

Time = 0.57

Courant Number mean: 0.0649923 max: 0.142861
DICPCG:  Solving for p, Initial residual = 0.00110285, Final residual = 5.35374e-05, No Iterations 93
smoothSolver:  Solving for omega, Initial residual = 0.000564229, Final residual = 8.10338e-07, No Iterations 1
DICPCG:  Solving for psi, Initial residual = 7.2421e-06, Final residual = 9.1938e-07, No Iterations 50
time step continuity errors : sum local = 3.29381e-06, global = -1.87283e-20, cumulative = -7.11829e-19
ExecutionTime = 7.48 s  ClockTime = 8 s

Time = 0.58

Courant Number mean: 0.0649943 max: 0.142871
DICPCG:  Solving for p, Initial residual = 0.00110171, Final residual = 5.47273e-05, No Iterations 96
smoothSolver:  Solving for omega, Initial residual = 0.00056421, Final residual = 8.13749e-07, No Iterations 1
DICPCG:  Solving for psi, Initial residual = 7.23026e-06, Final residual = 9.58885e-07, No Iterations 52
time step continuity errors : sum local = 3.29383e-06, global = -1.16665e-20, cumulative = -7.23495e-19
ExecutionTime = 7.61 s  ClockTime = 8 s

Time = 0.59

Courant Number mean: 0.0649964 max: 0.142879
DICPCG:  Solving for p, Initial residual = 0.00110309, Final residual = 5.48156e-05, No Iterations 242
smoothSolver:  Solving for omega, Initial residual = 0.000564191, Final residual = 8.17163e-07, No Iterations 1
DICPCG:  Solving for psi, Initial residual = 7.181e-06, Final residual = 9.28379e-07, No Iterations 52
time step continuity errors : sum local = 3.29382e-06, global = -1.52232e-20, cumulative = -7.38718e-19
ExecutionTime = 7.82 s  ClockTime = 8 s

Time = 0.6

Courant Number mean: 0.0649985 max: 0.142888
DICPCG:  Solving for p, Initial residual = 0.00110709, Final residual = 5.43717e-05, No Iterations 85
smoothSolver:  Solving for omega, Initial residual = 0.00056417, Final residual = 8.20574e-07, No Iterations 1
DICPCG:  Solving for psi, Initial residual = 7.23611e-06, Final residual = 9.78984e-07, No Iterations 51
time step continuity errors : sum local = 3.29383e-06, global = -1.94499e-20, cumulative = -7.58168e-19
ExecutionTime = 7.95 s  ClockTime = 8 s

Time = 0.61

Courant Number mean: 0.0650007 max: 0.142896
DICPCG:  Solving for p, Initial residual = 0.00109941, Final residual = 5.39134e-05, No Iterations 86
smoothSolver:  Solving for omega, Initial residual = 0.000564147, Final residual = 8.23984e-07, No Iterations 1
DICPCG:  Solving for psi, Initial residual = 7.24536e-06, Final residual = 9.26222e-07, No Iterations 51
time step continuity errors : sum local = 3.29382e-06, global = -2.4656e-20, cumulative = -7.82824e-19
ExecutionTime = 8.07 s  ClockTime = 8 s

Time = 0.62

Courant Number mean: 0.0650028 max: 0.142907
DICPCG:  Solving for p, Initial residual = 0.00109954, Final residual = 5.10519e-05, No Iterations 87
smoothSolver:  Solving for omega, Initial residual = 0.000564122, Final residual = 8.27398e-07, No Iterations 1
DICPCG:  Solving for psi, Initial residual = 7.19034e-06, Final residual = 9.85357e-07, No Iterations 52
time step continuity errors : sum local = 3.29383e-06, global = -1.10651e-20, cumulative = -7.93889e-19
ExecutionTime = 8.19 s  ClockTime = 8 s

Time = 0.63

Courant Number mean: 0.065005 max: 0.142921
DICPCG:  Solving for p, Initial residual = 0.00110036, Final residual = 5.31745e-05, No Iterations 87
smoothSolver:  Solving for omega, Initial residual = 0.000564098, Final residual = 8.30812e-07, No Iterations 1
DICPCG:  Solving for psi, Initial residual = 7.18887e-06, Final residual = 9.90481e-07, No Iterations 51
time step continuity errors : sum local = 3.29382e-06, global = -2.32986e-20, cumulative = -8.17188e-19
ExecutionTime = 8.31 s  ClockTime = 8 s

Time = 0.64

Courant Number mean: 0.0650072 max: 0.142934
DICPCG:  Solving for p, Initial residual = 0.00110205, Final residual = 5.43458e-05, No Iterations 87
smoothSolver:  Solving for omega, Initial residual = 0.000564073, Final residual = 8.34232e-07, No Iterations 1
DICPCG:  Solving for psi, Initial residual = 7.23362e-06, Final residual = 9.59556e-07, No Iterations 51
time step continuity errors : sum local = 3.29384e-06, global = -1.81613e-20, cumulative = -8.35349e-19
ExecutionTime = 8.43 s  ClockTime = 9 s

Time = 0.65

Courant Number mean: 0.0650095 max: 0.142948
DICPCG:  Solving for p, Initial residual = 0.00110219, Final residual = 5.34512e-05, No Iterations 88
smoothSolver:  Solving for omega, Initial residual = 0.00056405, Final residual = 8.37661e-07, No Iterations 1
DICPCG:  Solving for psi, Initial residual = 7.24586e-06, Final residual = 9.91735e-07, No Iterations 50
time step continuity errors : sum local = 3.29384e-06, global = -4.27829e-21, cumulative = -8.39628e-19
ExecutionTime = 8.56 s  ClockTime = 9 s

Time = 0.66

Courant Number mean: 0.0650117 max: 0.142961
DICPCG:  Solving for p, Initial residual = 0.00110389, Final residual = 5.35412e-05, No Iterations 90
smoothSolver:  Solving for omega, Initial residual = 0.000564024, Final residual = 8.4108e-07, No Iterations 1
DICPCG:  Solving for psi, Initial residual = 7.23324e-06, Final residual = 9.82815e-07, No Iterations 50
time step continuity errors : sum local = 3.29385e-06, global = -1.04981e-20, cumulative = -8.50126e-19
ExecutionTime = 8.68 s  ClockTime = 9 s

Time = 0.67

Courant Number mean: 0.065014 max: 0.142975
DICPCG:  Solving for p, Initial residual = 0.00110177, Final residual = 5.33086e-05, No Iterations 91
smoothSolver:  Solving for omega, Initial residual = 0.000564002, Final residual = 8.445e-07, No Iterations 1
DICPCG:  Solving for psi, Initial residual = 7.21944e-06, Final residual = 8.31274e-07, No Iterations 53
time step continuity errors : sum local = 3.29386e-06, global = -1.40548e-20, cumulative = -8.6418e-19
ExecutionTime = 8.8 s  ClockTime = 9 s

Time = 0.68

Courant Number mean: 0.0650163 max: 0.142987
DICPCG:  Solving for p, Initial residual = 0.00110096, Final residual = 5.31884e-05, No Iterations 93
smoothSolver:  Solving for omega, Initial residual = 0.000563986, Final residual = 8.47916e-07, No Iterations 1
DICPCG:  Solving for psi, Initial residual = 7.08156e-06, Final residual = 9.62155e-07, No Iterations 52
time step continuity errors : sum local = 3.29387e-06, global = -1.56012e-20, cumulative = -8.79782e-19
ExecutionTime = 8.93 s  ClockTime = 9 s

Time = 0.69

Courant Number mean: 0.0650186 max: 0.142999
DICPCG:  Solving for p, Initial residual = 0.00109839, Final residual = 5.48192e-05, No Iterations 96
smoothSolver:  Solving for omega, Initial residual = 0.000563975, Final residual = 8.51337e-07, No Iterations 1
DICPCG:  Solving for psi, Initial residual = 7.19114e-06, Final residual = 9.82242e-07, No Iterations 52
time step continuity errors : sum local = 3.29387e-06, global = -1.14947e-20, cumulative = -8.91276e-19
ExecutionTime = 9.05 s  ClockTime = 9 s

Time = 0.7

Courant Number mean: 0.0650209 max: 0.143012
DICPCG:  Solving for p, Initial residual = 0.00109631, Final residual = 5.45761e-05, No Iterations 243
smoothSolver:  Solving for omega, Initial residual = 0.000563966, Final residual = 8.54754e-07, No Iterations 1
DICPCG:  Solving for psi, Initial residual = 7.22e-06, Final residual = 8.9296e-07, No Iterations 51
time step continuity errors : sum local = 3.29388e-06, global = -2.54807e-20, cumulative = -9.16757e-19
ExecutionTime = 9.26 s  ClockTime = 9 s

Time = 0.71

Courant Number mean: 0.0650232 max: 0.143024
DICPCG:  Solving for p, Initial residual = 0.00110255, Final residual = 5.34552e-05, No Iterations 85
smoothSolver:  Solving for omega, Initial residual = 0.000563958, Final residual = 8.58171e-07, No Iterations 1
DICPCG:  Solving for psi, Initial residual = 7.18385e-06, Final residual = 9.97016e-07, No Iterations 51
time step continuity errors : sum local = 3.29389e-06, global = -1.19242e-20, cumulative = -9.28681e-19
ExecutionTime = 9.38 s  ClockTime = 10 s

Time = 0.72

Courant Number mean: 0.0650255 max: 0.143036
DICPCG:  Solving for p, Initial residual = 0.00110296, Final residual = 5.3668e-05, No Iterations 86
smoothSolver:  Solving for omega, Initial residual = 0.00056395, Final residual = 8.61587e-07, No Iterations 1
DICPCG:  Solving for psi, Initial residual = 7.20857e-06, Final residual = 9.89513e-07, No Iterations 51
time step continuity errors : sum local = 3.29389e-06, global = -7.25076e-21, cumulative = -9.35932e-19
ExecutionTime = 9.49 s  ClockTime = 10 s

Time = 0.73

Courant Number mean: 0.0650279 max: 0.143047
DICPCG:  Solving for p, Initial residual = 0.00110589, Final residual = 5.45511e-05, No Iterations 86
smoothSolver:  Solving for omega, Initial residual = 0.000563945, Final residual = 8.64994e-07, No Iterations 1
DICPCG:  Solving for psi, Initial residual = 7.2524e-06, Final residual = 9.42389e-07, No Iterations 50
time step continuity errors : sum local = 3.29391e-06, global = -3.34188e-20, cumulative = -9.69351e-19
ExecutionTime = 9.61 s  ClockTime = 10 s

Time = 0.74

Courant Number mean: 0.0650302 max: 0.143059
DICPCG:  Solving for p, Initial residual = 0.0011065, Final residual = 5.38671e-05, No Iterations 87
smoothSolver:  Solving for omega, Initial residual = 0.000563938, Final residual = 8.68405e-07, No Iterations 1
DICPCG:  Solving for psi, Initial residual = 7.20657e-06, Final residual = 9.26248e-07, No Iterations 50
time step continuity errors : sum local = 3.2939e-06, global = -2.31784e-20, cumulative = -9.92529e-19
ExecutionTime = 9.74 s  ClockTime = 10 s

Time = 0.75

Courant Number mean: 0.0650326 max: 0.14307
DICPCG:  Solving for p, Initial residual = 0.00110105, Final residual = 4.9975e-05, No Iterations 88
smoothSolver:  Solving for omega, Initial residual = 0.000563931, Final residual = 8.71811e-07, No Iterations 1
DICPCG:  Solving for psi, Initial residual = 7.18967e-06, Final residual = 9.82789e-07, No Iterations 50
time step continuity errors : sum local = 3.29392e-06, global = -3.58242e-20, cumulative = -1.02835e-18
ExecutionTime = 9.85 s  ClockTime = 10 s

Time = 0.76

Courant Number mean: 0.065035 max: 0.143081
DICPCG:  Solving for p, Initial residual = 0.00109731, Final residual = 5.29646e-05, No Iterations 88
smoothSolver:  Solving for omega, Initial residual = 0.000563923, Final residual = 8.75218e-07, No Iterations 1
DICPCG:  Solving for psi, Initial residual = 7.22327e-06, Final residual = 9.72796e-07, No Iterations 50
time step continuity errors : sum local = 3.29391e-06, global = -1.39689e-20, cumulative = -1.04232e-18
ExecutionTime = 9.96 s  ClockTime = 10 s

Time = 0.77

Courant Number mean: 0.0650374 max: 0.143091
DICPCG:  Solving for p, Initial residual = 0.00109987, Final residual = 5.45913e-05, No Iterations 89
smoothSolver:  Solving for omega, Initial residual = 0.000563915, Final residual = 8.78623e-07, No Iterations 1
DICPCG:  Solving for psi, Initial residual = 7.23221e-06, Final residual = 8.3224e-07, No Iterations 53
time step continuity errors : sum local = 3.29393e-06, global = 9.57031e-21, cumulative = -1.03275e-18
ExecutionTime = 10.08 s  ClockTime = 10 s

Time = 0.78

Courant Number mean: 0.0650398 max: 0.143102
DICPCG:  Solving for p, Initial residual = 0.00110009, Final residual = 5.29661e-05, No Iterations 91
smoothSolver:  Solving for omega, Initial residual = 0.000563907, Final residual = 8.82031e-07, No Iterations 1
DICPCG:  Solving for psi, Initial residual = 7.06457e-06, Final residual = 9.89546e-07, No Iterations 52
time step continuity errors : sum local = 3.29393e-06, global = -7.19921e-21, cumulative = -1.03995e-18
ExecutionTime = 10.21 s  ClockTime = 10 s

Time = 0.79

Courant Number mean: 0.0650422 max: 0.143111
DICPCG:  Solving for p, Initial residual = 0.00109983, Final residual = 5.35821e-05, No Iterations 93
smoothSolver:  Solving for omega, Initial residual = 0.000563901, Final residual = 8.85437e-07, No Iterations 1
DICPCG:  Solving for psi, Initial residual = 7.21939e-06, Final residual = 9.83119e-07, No Iterations 52
time step continuity errors : sum local = 3.29394e-06, global = -1.13572e-20, cumulative = -1.05131e-18
ExecutionTime = 10.33 s  ClockTime = 10 s

Time = 0.8

Courant Number mean: 0.0650445 max: 0.143121
DICPCG:  Solving for p, Initial residual = 0.00109709, Final residual = 5.46799e-05, No Iterations 94
smoothSolver:  Solving for omega, Initial residual = 0.000563897, Final residual = 8.88847e-07, No Iterations 1
DICPCG:  Solving for psi, Initial residual = 7.23484e-06, Final residual = 9.53733e-07, No Iterations 51
time step continuity errors : sum local = 3.29394e-06, global = -2.57728e-21, cumulative = -1.05389e-18
ExecutionTime = 10.45 s  ClockTime = 11 s

Time = 0.81

Courant Number mean: 0.065047 max: 0.14313
DICPCG:  Solving for p, Initial residual = 0.00110077, Final residual = 5.48444e-05, No Iterations 100
smoothSolver:  Solving for omega, Initial residual = 0.000563891, Final residual = 8.92255e-07, No Iterations 1
DICPCG:  Solving for psi, Initial residual = 7.21717e-06, Final residual = 9.94531e-07, No Iterations 51
time step continuity errors : sum local = 3.29396e-06, global = -2.62368e-20, cumulative = -1.08012e-18
ExecutionTime = 10.6 s  ClockTime = 11 s

Time = 0.82

Courant Number mean: 0.0650494 max: 0.14314
DICPCG:  Solving for p, Initial residual = 0.00110125, Final residual = 5.44276e-05, No Iterations 243
smoothSolver:  Solving for omega, Initial residual = 0.000563885, Final residual = 8.95661e-07, No Iterations 1
DICPCG:  Solving for psi, Initial residual = 7.21643e-06, Final residual = 8.85398e-07, No Iterations 53
time step continuity errors : sum local = 3.29395e-06, global = 7.49131e-21, cumulative = -1.07263e-18
ExecutionTime = 10.84 s  ClockTime = 11 s

Time = 0.83

Courant Number mean: 0.0650518 max: 0.143149
DICPCG:  Solving for p, Initial residual = 0.0011056, Final residual = 5.33456e-05, No Iterations 85
smoothSolver:  Solving for omega, Initial residual = 0.000563878, Final residual = 8.99058e-07, No Iterations 1
DICPCG:  Solving for psi, Initial residual = 7.14913e-06, Final residual = 9.53447e-07, No Iterations 51
time step continuity errors : sum local = 3.29395e-06, global = -1.37971e-20, cumulative = -1.08643e-18
ExecutionTime = 10.98 s  ClockTime = 11 s

Time = 0.84

Courant Number mean: 0.0650542 max: 0.143157
DICPCG:  Solving for p, Initial residual = 0.00110253, Final residual = 5.28329e-05, No Iterations 86
smoothSolver:  Solving for omega, Initial residual = 0.000563871, Final residual = 9.02455e-07, No Iterations 1
DICPCG:  Solving for psi, Initial residual = 7.21625e-06, Final residual = 9.15882e-07, No Iterations 52
time step continuity errors : sum local = 3.29397e-06, global = -1.85221e-20, cumulative = -1.10495e-18
ExecutionTime = 11.12 s  ClockTime = 11 s

Time = 0.85

Courant Number mean: 0.0650566 max: 0.143166
DICPCG:  Solving for p, Initial residual = 0.00110249, Final residual = 5.25408e-05, No Iterations 87
smoothSolver:  Solving for omega, Initial residual = 0.000563862, Final residual = 9.05852e-07, No Iterations 1
DICPCG:  Solving for psi, Initial residual = 7.14846e-06, Final residual = 7.38074e-07, No Iterations 53
time step continuity errors : sum local = 3.29397e-06, global = -2.09963e-20, cumulative = -1.12595e-18
ExecutionTime = 11.25 s  ClockTime = 11 s

Time = 0.86

Courant Number mean: 0.0650591 max: 0.143174
DICPCG:  Solving for p, Initial residual = 0.00110794, Final residual = 5.47127e-05, No Iterations 87
smoothSolver:  Solving for omega, Initial residual = 0.000563854, Final residual = 9.09243e-07, No Iterations 1
DICPCG:  Solving for psi, Initial residual = 7.05602e-06, Final residual = 8.29222e-07, No Iterations 52
time step continuity errors : sum local = 3.29398e-06, global = -7.7834e-21, cumulative = -1.13373e-18
ExecutionTime = 11.39 s  ClockTime = 12 s

Time = 0.87

Courant Number mean: 0.0650617 max: 0.143182
DICPCG:  Solving for p, Initial residual = 0.0011075, Final residual = 5.14224e-05, No Iterations 88
smoothSolver:  Solving for omega, Initial residual = 0.000563845, Final residual = 9.12635e-07, No Iterations 1
DICPCG:  Solving for psi, Initial residual = 7.1007e-06, Final residual = 9.00855e-07, No Iterations 52
time step continuity errors : sum local = 3.29399e-06, global = 2.13055e-21, cumulative = -1.1316e-18
ExecutionTime = 11.52 s  ClockTime = 12 s

Time = 0.88

Courant Number mean: 0.0650642 max: 0.14319
DICPCG:  Solving for p, Initial residual = 0.00110566, Final residual = 5.38554e-05, No Iterations 88
smoothSolver:  Solving for omega, Initial residual = 0.000563833, Final residual = 9.16027e-07, No Iterations 1
DICPCG:  Solving for psi, Initial residual = 7.16307e-06, Final residual = 8.71416e-07, No Iterations 52
time step continuity errors : sum local = 3.29401e-06, global = -1.21991e-20, cumulative = -1.1438e-18
ExecutionTime = 11.64 s  ClockTime = 12 s

Time = 0.89

Courant Number mean: 0.0650668 max: 0.143197
DICPCG:  Solving for p, Initial residual = 0.00110841, Final residual = 5.46283e-05, No Iterations 89
smoothSolver:  Solving for omega, Initial residual = 0.00056382, Final residual = 9.19416e-07, No Iterations 1
DICPCG:  Solving for psi, Initial residual = 7.11238e-06, Final residual = 9.66138e-07, No Iterations 52
time step continuity errors : sum local = 3.29402e-06, global = -7.31949e-21, cumulative = -1.15112e-18
ExecutionTime = 11.78 s  ClockTime = 12 s

Time = 0.9

Courant Number mean: 0.0650695 max: 0.143204
DICPCG:  Solving for p, Initial residual = 0.00110788, Final residual = 5.30409e-05, No Iterations 91
smoothSolver:  Solving for omega, Initial residual = 0.000563808, Final residual = 9.22805e-07, No Iterations 1
DICPCG:  Solving for psi, Initial residual = 7.21485e-06, Final residual = 9.67954e-07, No Iterations 51
time step continuity errors : sum local = 3.29403e-06, global = -2.5034e-20, cumulative = -1.17615e-18
ExecutionTime = 11.92 s  ClockTime = 12 s

Time = 0.91

Courant Number mean: 0.0650721 max: 0.143213
DICPCG:  Solving for p, Initial residual = 0.00110768, Final residual = 5.42118e-05, No Iterations 93
smoothSolver:  Solving for omega, Initial residual = 0.000563798, Final residual = 9.26192e-07, No Iterations 1
DICPCG:  Solving for psi, Initial residual = 7.21602e-06, Final residual = 9.98432e-07, No Iterations 51
time step continuity errors : sum local = 3.29404e-06, global = -1.91578e-20, cumulative = -1.19531e-18
ExecutionTime = 12.06 s  ClockTime = 12 s

Time = 0.92

Courant Number mean: 0.0650748 max: 0.143226
DICPCG:  Solving for p, Initial residual = 0.00110208, Final residual = 5.3897e-05, No Iterations 96
smoothSolver:  Solving for omega, Initial residual = 0.000563793, Final residual = 9.29577e-07, No Iterations 1
DICPCG:  Solving for psi, Initial residual = 7.21006e-06, Final residual = 8.64876e-07, No Iterations 53
time step continuity errors : sum local = 3.29406e-06, global = -2.09275e-20, cumulative = -1.21624e-18
ExecutionTime = 12.2 s  ClockTime = 12 s

Time = 0.93

Courant Number mean: 0.0650774 max: 0.143238
DICPCG:  Solving for p, Initial residual = 0.0011025, Final residual = 5.50714e-05, No Iterations 102
smoothSolver:  Solving for omega, Initial residual = 0.000563791, Final residual = 9.32959e-07, No Iterations 1
DICPCG:  Solving for psi, Initial residual = 7.12483e-06, Final residual = 9.65685e-07, No Iterations 51
time step continuity errors : sum local = 3.29408e-06, global = -2.68725e-20, cumulative = -1.24311e-18
ExecutionTime = 12.34 s  ClockTime = 12 s

Time = 0.94

Courant Number mean: 0.0650801 max: 0.14325
DICPCG:  Solving for p, Initial residual = 0.00110414, Final residual = 5.39862e-05, No Iterations 244
smoothSolver:  Solving for omega, Initial residual = 0.000563794, Final residual = 9.36341e-07, No Iterations 1
DICPCG:  Solving for psi, Initial residual = 7.21415e-06, Final residual = 9.12938e-07, No Iterations 52
time step continuity errors : sum local = 3.29408e-06, global = -1.90204e-20, cumulative = -1.26213e-18
ExecutionTime = 12.56 s  ClockTime = 13 s

Time = 0.95

Courant Number mean: 0.0650828 max: 0.143262
DICPCG:  Solving for p, Initial residual = 0.0011065, Final residual = 5.25962e-05, No Iterations 85
smoothSolver:  Solving for omega, Initial residual = 0.000563798, Final residual = 9.39721e-07, No Iterations 1
DICPCG:  Solving for psi, Initial residual = 7.13464e-06, Final residual = 7.30279e-07, No Iterations 53
time step continuity errors : sum local = 3.2941e-06, global = -1.71475e-20, cumulative = -1.27928e-18
ExecutionTime = 12.69 s  ClockTime = 13 s

Time = 0.96

Courant Number mean: 0.0650855 max: 0.143273
DICPCG:  Solving for p, Initial residual = 0.00110733, Final residual = 5.49867e-05, No Iterations 85
smoothSolver:  Solving for omega, Initial residual = 0.000563804, Final residual = 9.43092e-07, No Iterations 1
DICPCG:  Solving for psi, Initial residual = 7.05683e-06, Final residual = 8.32419e-07, No Iterations 52
time step continuity errors : sum local = 3.29411e-06, global = -3.16834e-20, cumulative = -1.31096e-18
ExecutionTime = 12.83 s  ClockTime = 13 s

Time = 0.97

Courant Number mean: 0.0650882 max: 0.143284
DICPCG:  Solving for p, Initial residual = 0.00110752, Final residual = 5.52536e-05, No Iterations 85
smoothSolver:  Solving for omega, Initial residual = 0.00056381, Final residual = 9.46461e-07, No Iterations 1
DICPCG:  Solving for psi, Initial residual = 7.09726e-06, Final residual = 8.82966e-07, No Iterations 52
time step continuity errors : sum local = 3.29412e-06, global = 8.60813e-21, cumulative = -1.30235e-18
ExecutionTime = 12.97 s  ClockTime = 13 s

Time = 0.98

Courant Number mean: 0.065091 max: 0.143295
DICPCG:  Solving for p, Initial residual = 0.0011071, Final residual = 5.3774e-05, No Iterations 87
smoothSolver:  Solving for omega, Initial residual = 0.000563817, Final residual = 9.49822e-07, No Iterations 1
DICPCG:  Solving for psi, Initial residual = 7.13594e-06, Final residual = 8.86911e-07, No Iterations 52
time step continuity errors : sum local = 3.29413e-06, global = -2.83845e-20, cumulative = -1.33074e-18
ExecutionTime = 13.08 s  ClockTime = 13 s

Time = 0.99

Courant Number mean: 0.0650937 max: 0.143306
DICPCG:  Solving for p, Initial residual = 0.00110582, Final residual = 5.51151e-05, No Iterations 87
smoothSolver:  Solving for omega, Initial residual = 0.000563826, Final residual = 9.53179e-07, No Iterations 1
DICPCG:  Solving for psi, Initial residual = 7.1161e-06, Final residual = 9.51154e-07, No Iterations 52
time step continuity errors : sum local = 3.29414e-06, global = -3.70613e-20, cumulative = -1.3678e-18
ExecutionTime = 13.2 s  ClockTime = 13 s

Time = 1

Courant Number mean: 0.0650964 max: 0.143316
DICPCG:  Solving for p, Initial residual = 0.00110698, Final residual = 5.18783e-05, No Iterations 88
smoothSolver:  Solving for omega, Initial residual = 0.000563835, Final residual = 9.56536e-07, No Iterations 1
DICPCG:  Solving for psi, Initial residual = 7.20703e-06, Final residual = 9.87071e-07, No Iterations 51
time step continuity errors : sum local = 3.29416e-06, global = -3.34703e-20, cumulative = -1.40127e-18
ExecutionTime = 13.39 s  ClockTime = 14 s

Time = 1.01

Courant Number mean: 0.0650992 max: 0.143327
DICPCG:  Solving for p, Initial residual = 0.00110669, Final residual = 5.50767e-05, No Iterations 88
smoothSolver:  Solving for omega, Initial residual = 0.000563842, Final residual = 9.59896e-07, No Iterations 1
DICPCG:  Solving for psi, Initial residual = 7.21974e-06, Final residual = 9.76139e-07, No Iterations 51
time step continuity errors : sum local = 3.29417e-06, global = -3.52229e-21, cumulative = -1.40479e-18
ExecutionTime = 13.55 s  ClockTime = 14 s

Time = 1.02

Courant Number mean: 0.0651019 max: 0.143337
DICPCG:  Solving for p, Initial residual = 0.00110092, Final residual = 5.44666e-05, No Iterations 90
smoothSolver:  Solving for omega, Initial residual = 0.000563849, Final residual = 9.63252e-07, No Iterations 1
DICPCG:  Solving for psi, Initial residual = 7.2022e-06, Final residual = 9.60976e-07, No Iterations 52
time step continuity errors : sum local = 3.29418e-06, global = -2.3522e-20, cumulative = -1.42831e-18
ExecutionTime = 13.69 s  ClockTime = 14 s

Time = 1.03

Courant Number mean: 0.0651047 max: 0.143346
DICPCG:  Solving for p, Initial residual = 0.00110107, Final residual = 5.47629e-05, No Iterations 92
smoothSolver:  Solving for omega, Initial residual = 0.000563856, Final residual = 9.66602e-07, No Iterations 1
DICPCG:  Solving for psi, Initial residual = 7.16223e-06, Final residual = 9.87105e-07, No Iterations 52
time step continuity errors : sum local = 3.29419e-06, global = 8.14422e-21, cumulative = -1.42017e-18
ExecutionTime = 13.82 s  ClockTime = 14 s

Time = 1.04

Courant Number mean: 0.0651075 max: 0.143356
DICPCG:  Solving for p, Initial residual = 0.0011011, Final residual = 5.41621e-05, No Iterations 94
smoothSolver:  Solving for omega, Initial residual = 0.000563861, Final residual = 9.69952e-07, No Iterations 1
DICPCG:  Solving for psi, Initial residual = 7.20946e-06, Final residual = 9.36721e-07, No Iterations 52
time step continuity errors : sum local = 3.2942e-06, global = -2.22849e-20, cumulative = -1.44245e-18
ExecutionTime = 13.95 s  ClockTime = 14 s

Time = 1.05

Courant Number mean: 0.0651102 max: 0.143365
DICPCG:  Solving for p, Initial residual = 0.00110103, Final residual = 5.45621e-05, No Iterations 100
smoothSolver:  Solving for omega, Initial residual = 0.000563866, Final residual = 9.73296e-07, No Iterations 1
DICPCG:  Solving for psi, Initial residual = 7.16017e-06, Final residual = 9.61506e-07, No Iterations 51
time step continuity errors : sum local = 3.29421e-06, global = -1.5206e-20, cumulative = -1.45766e-18
ExecutionTime = 14.09 s  ClockTime = 14 s

Time = 1.06

Courant Number mean: 0.065113 max: 0.143374
DICPCG:  Solving for p, Initial residual = 0.00110202, Final residual = 5.32341e-05, No Iterations 244
smoothSolver:  Solving for omega, Initial residual = 0.000563871, Final residual = 9.76639e-07, No Iterations 1
DICPCG:  Solving for psi, Initial residual = 7.1951e-06, Final residual = 9.84136e-07, No Iterations 51
time step continuity errors : sum local = 3.29422e-06, global = -1.71475e-20, cumulative = -1.47481e-18
ExecutionTime = 14.3 s  ClockTime = 14 s

Time = 1.07

Courant Number mean: 0.0651158 max: 0.143383
DICPCG:  Solving for p, Initial residual = 0.00110607, Final residual = 5.15949e-05, No Iterations 85
smoothSolver:  Solving for omega, Initial residual = 0.000563875, Final residual = 9.79979e-07, No Iterations 1
DICPCG:  Solving for psi, Initial residual = 7.21747e-06, Final residual = 9.74288e-07, No Iterations 52
time step continuity errors : sum local = 3.29424e-06, global = -5.68721e-21, cumulative = -1.48049e-18
ExecutionTime = 14.42 s  ClockTime = 15 s

Time = 1.08

Courant Number mean: 0.0651186 max: 0.143391
DICPCG:  Solving for p, Initial residual = 0.00110749, Final residual = 5.29642e-05, No Iterations 85
smoothSolver:  Solving for omega, Initial residual = 0.000563876, Final residual = 9.83312e-07, No Iterations 1
DICPCG:  Solving for psi, Initial residual = 7.19618e-06, Final residual = 9.7216e-07, No Iterations 51
time step continuity errors : sum local = 3.29426e-06, global = -1.3505e-20, cumulative = -1.494e-18
ExecutionTime = 14.54 s  ClockTime = 15 s

Time = 1.09

Courant Number mean: 0.0651213 max: 0.143399
DICPCG:  Solving for p, Initial residual = 0.00110744, Final residual = 5.4741e-05, No Iterations 85
smoothSolver:  Solving for omega, Initial residual = 0.000563881, Final residual = 9.8664e-07, No Iterations 1
DICPCG:  Solving for psi, Initial residual = 7.20162e-06, Final residual = 9.43263e-07, No Iterations 51
time step continuity errors : sum local = 3.29427e-06, global = -3.60304e-20, cumulative = -1.53003e-18
ExecutionTime = 14.65 s  ClockTime = 15 s

Time = 1.1

Courant Number mean: 0.0651241 max: 0.143407
DICPCG:  Solving for p, Initial residual = 0.00110798, Final residual = 5.39108e-05, No Iterations 86
smoothSolver:  Solving for omega, Initial residual = 0.000563884, Final residual = 9.89968e-07, No Iterations 1
DICPCG:  Solving for psi, Initial residual = 7.18165e-06, Final residual = 9.8158e-07, No Iterations 52
time step continuity errors : sum local = 3.29429e-06, global = -6.66657e-21, cumulative = -1.5367e-18
ExecutionTime = 14.82 s  ClockTime = 15 s

Time = 1.11

Courant Number mean: 0.0651269 max: 0.143415
DICPCG:  Solving for p, Initial residual = 0.00110871, Final residual = 5.44396e-05, No Iterations 87
smoothSolver:  Solving for omega, Initial residual = 0.000563887, Final residual = 9.93284e-07, No Iterations 1
DICPCG:  Solving for psi, Initial residual = 7.20377e-06, Final residual = 8.59588e-07, No Iterations 53
time step continuity errors : sum local = 3.2943e-06, global = -5.56693e-21, cumulative = -1.54226e-18
ExecutionTime = 14.95 s  ClockTime = 15 s

Time = 1.12

Courant Number mean: 0.0651297 max: 0.143422
DICPCG:  Solving for p, Initial residual = 0.00110217, Final residual = 5.2261e-05, No Iterations 88
smoothSolver:  Solving for omega, Initial residual = 0.000563889, Final residual = 9.966e-07, No Iterations 1
DICPCG:  Solving for psi, Initial residual = 7.09599e-06, Final residual = 8.65865e-07, No Iterations 52
time step continuity errors : sum local = 3.29432e-06, global = -9.15795e-21, cumulative = -1.55142e-18
ExecutionTime = 15.08 s  ClockTime = 15 s

Time = 1.13

Courant Number mean: 0.0651325 max: 0.143429
DICPCG:  Solving for p, Initial residual = 0.00110076, Final residual = 5.29107e-05, No Iterations 89
smoothSolver:  Solving for omega, Initial residual = 0.00056389, Final residual = 9.99917e-07, No Iterations 1
DICPCG:  Solving for psi, Initial residual = 7.12493e-06, Final residual = 9.48416e-07, No Iterations 52
time step continuity errors : sum local = 3.29433e-06, global = -1.81269e-20, cumulative = -1.56955e-18
ExecutionTime = 15.2 s  ClockTime = 15 s

Time = 1.14

Courant Number mean: 0.0651353 max: 0.143436
DICPCG:  Solving for p, Initial residual = 0.00110111, Final residual = 5.45806e-05, No Iterations 90
smoothSolver:  Solving for omega, Initial residual = 0.000563892, Final residual = 1.00323e-06, No Iterations 1
DICPCG:  Solving for psi, Initial residual = 7.14618e-06, Final residual = 9.14652e-07, No Iterations 52
time step continuity errors : sum local = 3.29435e-06, global = -1.85564e-21, cumulative = -1.5714e-18
ExecutionTime = 15.32 s  ClockTime = 15 s

Time = 1.15

Courant Number mean: 0.0651381 max: 0.143443
DICPCG:  Solving for p, Initial residual = 0.00110218, Final residual = 5.46944e-05, No Iterations 91
smoothSolver:  Solving for omega, Initial residual = 0.000563898, Final residual = 1.00654e-06, No Iterations 1
DICPCG:  Solving for psi, Initial residual = 7.14992e-06, Final residual = 9.90518e-07, No Iterations 52
time step continuity errors : sum local = 3.29437e-06, global = -1.40892e-20, cumulative = -1.58549e-18
ExecutionTime = 15.44 s  ClockTime = 16 s

Time = 1.16

Courant Number mean: 0.0651408 max: 0.143449
DICPCG:  Solving for p, Initial residual = 0.00110345, Final residual = 5.38357e-05, No Iterations 94
smoothSolver:  Solving for omega, Initial residual = 0.000563907, Final residual = 1.00984e-06, No Iterations 1
DICPCG:  Solving for psi, Initial residual = 7.1906e-06, Final residual = 9.79711e-07, No Iterations 51
time step continuity errors : sum local = 3.29438e-06, global = -9.84522e-21, cumulative = -1.59534e-18
ExecutionTime = 15.56 s  ClockTime = 16 s

Time = 1.17

Courant Number mean: 0.0651436 max: 0.143455
DICPCG:  Solving for p, Initial residual = 0.00110229, Final residual = 5.42636e-05, No Iterations 100
smoothSolver:  Solving for omega, Initial residual = 0.00056392, Final residual = 1.01314e-06, No Iterations 1
DICPCG:  Solving for psi, Initial residual = 7.19667e-06, Final residual = 9.62864e-07, No Iterations 51
time step continuity errors : sum local = 3.29439e-06, global = -1.83674e-20, cumulative = -1.61371e-18
ExecutionTime = 15.73 s  ClockTime = 16 s

Time = 1.18

Courant Number mean: 0.0651464 max: 0.143461
DICPCG:  Solving for p, Initial residual = 0.00110399, Final residual = 5.47795e-05, No Iterations 244
smoothSolver:  Solving for omega, Initial residual = 0.000563935, Final residual = 1.01644e-06, No Iterations 1
DICPCG:  Solving for psi, Initial residual = 7.18815e-06, Final residual = 9.85784e-07, No Iterations 51
time step continuity errors : sum local = 3.29441e-06, global = -9.81086e-21, cumulative = -1.62352e-18
ExecutionTime = 15.94 s  ClockTime = 16 s

Time = 1.19

Courant Number mean: 0.0651493 max: 0.143467
DICPCG:  Solving for p, Initial residual = 0.00111509, Final residual = 5.20486e-05, No Iterations 85
smoothSolver:  Solving for omega, Initial residual = 0.000563951, Final residual = 1.01973e-06, No Iterations 1
DICPCG:  Solving for psi, Initial residual = 7.20411e-06, Final residual = 9.92178e-07, No Iterations 51
time step continuity errors : sum local = 3.29442e-06, global = -2.49137e-20, cumulative = -1.64843e-18
ExecutionTime = 16.09 s  ClockTime = 16 s

Time = 1.2

Courant Number mean: 0.0651522 max: 0.143472
DICPCG:  Solving for p, Initial residual = 0.00111431, Final residual = 5.41355e-05, No Iterations 85
smoothSolver:  Solving for omega, Initial residual = 0.000563968, Final residual = 1.02302e-06, No Iterations 1
DICPCG:  Solving for psi, Initial residual = 7.20743e-06, Final residual = 9.90637e-07, No Iterations 51
time step continuity errors : sum local = 3.29444e-06, global = -6.44321e-21, cumulative = -1.65487e-18
ExecutionTime = 16.23 s  ClockTime = 16 s

Time = 1.21

Courant Number mean: 0.0651551 max: 0.143477
DICPCG:  Solving for p, Initial residual = 0.00111579, Final residual = 5.56062e-05, No Iterations 85
smoothSolver:  Solving for omega, Initial residual = 0.000563984, Final residual = 1.02631e-06, No Iterations 1
DICPCG:  Solving for psi, Initial residual = 7.21264e-06, Final residual = 9.49315e-07, No Iterations 52
time step continuity errors : sum local = 3.29445e-06, global = -1.06356e-20, cumulative = -1.66551e-18
ExecutionTime = 16.36 s  ClockTime = 17 s

Time = 1.22

Courant Number mean: 0.065158 max: 0.143482
DICPCG:  Solving for p, Initial residual = 0.00111614, Final residual = 5.56091e-05, No Iterations 86
smoothSolver:  Solving for omega, Initial residual = 0.000563999, Final residual = 1.02959e-06, No Iterations 1
DICPCG:  Solving for psi, Initial residual = 7.14111e-06, Final residual = 9.51292e-07, No Iterations 52
time step continuity errors : sum local = 3.29447e-06, global = -1.82128e-20, cumulative = -1.68372e-18
ExecutionTime = 16.48 s  ClockTime = 17 s

Time = 1.23

Courant Number mean: 0.0651609 max: 0.143492
DICPCG:  Solving for p, Initial residual = 0.00110863, Final residual = 5.02399e-05, No Iterations 88
smoothSolver:  Solving for omega, Initial residual = 0.000564016, Final residual = 1.03287e-06, No Iterations 1
DICPCG:  Solving for psi, Initial residual = 7.16646e-06, Final residual = 9.13019e-07, No Iterations 52
time step continuity errors : sum local = 3.29448e-06, global = -1.26974e-20, cumulative = -1.69642e-18
ExecutionTime = 16.61 s  ClockTime = 17 s

Time = 1.24

Courant Number mean: 0.0651639 max: 0.143503
DICPCG:  Solving for p, Initial residual = 0.00110472, Final residual = 5.24721e-05, No Iterations 88
smoothSolver:  Solving for omega, Initial residual = 0.000564035, Final residual = 1.03614e-06, No Iterations 1
DICPCG:  Solving for psi, Initial residual = 7.13604e-06, Final residual = 9.99882e-07, No Iterations 51
time step continuity errors : sum local = 3.29449e-06, global = -8.48786e-21, cumulative = -1.70491e-18
ExecutionTime = 16.73 s  ClockTime = 17 s

Time = 1.25

Courant Number mean: 0.0651668 max: 0.143513
DICPCG:  Solving for p, Initial residual = 0.00110496, Final residual = 5.41464e-05, No Iterations 89
smoothSolver:  Solving for omega, Initial residual = 0.000564056, Final residual = 1.03941e-06, No Iterations 1
DICPCG:  Solving for psi, Initial residual = 7.18351e-06, Final residual = 8.70489e-07, No Iterations 53
time step continuity errors : sum local = 3.2945e-06, global = -4.30235e-20, cumulative = -1.74793e-18
ExecutionTime = 16.87 s  ClockTime = 17 s

Time = 1.26

Courant Number mean: 0.0651698 max: 0.143523
DICPCG:  Solving for p, Initial residual = 0.0011062, Final residual = 5.13291e-05, No Iterations 91
smoothSolver:  Solving for omega, Initial residual = 0.000564075, Final residual = 1.04268e-06, No Iterations 1
DICPCG:  Solving for psi, Initial residual = 7.11359e-06, Final residual = 9.91974e-07, No Iterations 51
time step continuity errors : sum local = 3.29452e-06, global = -2.48622e-20, cumulative = -1.77279e-18
ExecutionTime = 17 s  ClockTime = 17 s

Time = 1.27

Courant Number mean: 0.0651727 max: 0.143533
DICPCG:  Solving for p, Initial residual = 0.00110626, Final residual = 5.52622e-05, No Iterations 91
smoothSolver:  Solving for omega, Initial residual = 0.000564093, Final residual = 1.04594e-06, No Iterations 1
DICPCG:  Solving for psi, Initial residual = 7.18583e-06, Final residual = 9.15158e-07, No Iterations 52
time step continuity errors : sum local = 3.29453e-06, global = -9.63904e-21, cumulative = -1.78243e-18
ExecutionTime = 17.13 s  ClockTime = 17 s

Time = 1.28

Courant Number mean: 0.0651757 max: 0.143543
DICPCG:  Solving for p, Initial residual = 0.00110786, Final residual = 5.42973e-05, No Iterations 94
smoothSolver:  Solving for omega, Initial residual = 0.000564113, Final residual = 1.0492e-06, No Iterations 1
DICPCG:  Solving for psi, Initial residual = 7.11198e-06, Final residual = 9.89573e-07, No Iterations 52
time step continuity errors : sum local = 3.29455e-06, global = -3.44669e-20, cumulative = -1.8169e-18
ExecutionTime = 17.26 s  ClockTime = 17 s

Time = 1.29

Courant Number mean: 0.0651787 max: 0.143553
DICPCG:  Solving for p, Initial residual = 0.00110833, Final residual = 5.38752e-05, No Iterations 102
smoothSolver:  Solving for omega, Initial residual = 0.000564133, Final residual = 1.05245e-06, No Iterations 1
DICPCG:  Solving for psi, Initial residual = 7.17762e-06, Final residual = 9.17055e-07, No Iterations 52
time step continuity errors : sum local = 3.29456e-06, global = -1.75943e-20, cumulative = -1.83449e-18
ExecutionTime = 17.39 s  ClockTime = 18 s

Time = 1.3

Courant Number mean: 0.0651817 max: 0.143562
DICPCG:  Solving for p, Initial residual = 0.00110836, Final residual = 5.06753e-05, No Iterations 245
smoothSolver:  Solving for omega, Initial residual = 0.000564153, Final residual = 1.05569e-06, No Iterations 1
DICPCG:  Solving for psi, Initial residual = 7.15983e-06, Final residual = 9.65339e-07, No Iterations 52
time step continuity errors : sum local = 3.29457e-06, global = -6.87276e-22, cumulative = -1.83518e-18
ExecutionTime = 17.61 s  ClockTime = 18 s

Time = 1.31

Courant Number mean: 0.0651847 max: 0.143571
DICPCG:  Solving for p, Initial residual = 0.00110828, Final residual = 5.08421e-05, No Iterations 85
smoothSolver:  Solving for omega, Initial residual = 0.000564172, Final residual = 1.05894e-06, No Iterations 1
DICPCG:  Solving for psi, Initial residual = 7.16033e-06, Final residual = 9.45809e-07, No Iterations 52
time step continuity errors : sum local = 3.29458e-06, global = -1.26115e-20, cumulative = -1.84779e-18
ExecutionTime = 17.73 s  ClockTime = 18 s

Time = 1.32

Courant Number mean: 0.0651877 max: 0.14358
DICPCG:  Solving for p, Initial residual = 0.00111094, Final residual = 5.29982e-05, No Iterations 85
smoothSolver:  Solving for omega, Initial residual = 0.000564188, Final residual = 1.06217e-06, No Iterations 1
DICPCG:  Solving for psi, Initial residual = 7.175e-06, Final residual = 9.71092e-07, No Iterations 51
time step continuity errors : sum local = 3.2946e-06, global = -2.10306e-20, cumulative = -1.86882e-18
ExecutionTime = 17.84 s  ClockTime = 18 s

Time = 1.33

Courant Number mean: 0.0651906 max: 0.143589
DICPCG:  Solving for p, Initial residual = 0.00111412, Final residual = 5.45727e-05, No Iterations 85
smoothSolver:  Solving for omega, Initial residual = 0.000564205, Final residual = 1.0654e-06, No Iterations 1
DICPCG:  Solving for psi, Initial residual = 7.18041e-06, Final residual = 9.63776e-07, No Iterations 51
time step continuity errors : sum local = 3.2946e-06, global = -1.84705e-20, cumulative = -1.88729e-18
ExecutionTime = 17.96 s  ClockTime = 18 s

Time = 1.34

Courant Number mean: 0.0651936 max: 0.143597
DICPCG:  Solving for p, Initial residual = 0.00111297, Final residual = 5.56331e-05, No Iterations 85
smoothSolver:  Solving for omega, Initial residual = 0.000564218, Final residual = 1.06863e-06, No Iterations 1
DICPCG:  Solving for psi, Initial residual = 7.17418e-06, Final residual = 9.81125e-07, No Iterations 51
time step continuity errors : sum local = 3.29462e-06, global = -1.33331e-20, cumulative = -1.90063e-18
ExecutionTime = 18.08 s  ClockTime = 18 s

Time = 1.35

Courant Number mean: 0.0651966 max: 0.143605
DICPCG:  Solving for p, Initial residual = 0.0011082, Final residual = 5.49646e-05, No Iterations 87
smoothSolver:  Solving for omega, Initial residual = 0.000564233, Final residual = 1.07185e-06, No Iterations 1
DICPCG:  Solving for psi, Initial residual = 7.17897e-06, Final residual = 9.7874e-07, No Iterations 52
time step continuity errors : sum local = 3.29462e-06, global = -3.61851e-20, cumulative = -1.93681e-18
ExecutionTime = 18.21 s  ClockTime = 18 s

Time = 1.36

Courant Number mean: 0.0651996 max: 0.143613
DICPCG:  Solving for p, Initial residual = 0.00110501, Final residual = 5.10179e-05, No Iterations 88
smoothSolver:  Solving for omega, Initial residual = 0.000564247, Final residual = 1.07507e-06, No Iterations 1
DICPCG:  Solving for psi, Initial residual = 7.16363e-06, Final residual = 9.65755e-07, No Iterations 52
time step continuity errors : sum local = 3.29465e-06, global = -9.50159e-21, cumulative = -1.94631e-18
ExecutionTime = 18.32 s  ClockTime = 19 s

Time = 1.37

Courant Number mean: 0.0652026 max: 0.14362
DICPCG:  Solving for p, Initial residual = 0.00110292, Final residual = 5.44564e-05, No Iterations 88
smoothSolver:  Solving for omega, Initial residual = 0.000564259, Final residual = 1.07828e-06, No Iterations 1
DICPCG:  Solving for psi, Initial residual = 7.17796e-06, Final residual = 9.40368e-07, No Iterations 52
time step continuity errors : sum local = 3.29465e-06, global = -4.70784e-21, cumulative = -1.95102e-18
ExecutionTime = 18.45 s  ClockTime = 19 s

Time = 1.38

Courant Number mean: 0.0652056 max: 0.143628
DICPCG:  Solving for p, Initial residual = 0.00110314, Final residual = 5.42127e-05, No Iterations 90
smoothSolver:  Solving for omega, Initial residual = 0.000564269, Final residual = 1.08148e-06, No Iterations 1
DICPCG:  Solving for psi, Initial residual = 7.15266e-06, Final residual = 9.74379e-07, No Iterations 51
time step continuity errors : sum local = 3.29467e-06, global = -3.268e-20, cumulative = -1.9837e-18
ExecutionTime = 18.56 s  ClockTime = 19 s

Time = 1.39

Courant Number mean: 0.0652086 max: 0.143635
DICPCG:  Solving for p, Initial residual = 0.00110375, Final residual = 5.39441e-05, No Iterations 91
smoothSolver:  Solving for omega, Initial residual = 0.000564285, Final residual = 1.08468e-06, No Iterations 1
DICPCG:  Solving for psi, Initial residual = 7.16127e-06, Final residual = 9.8638e-07, No Iterations 51
time step continuity errors : sum local = 3.29467e-06, global = -9.27822e-21, cumulative = -1.99298e-18
ExecutionTime = 18.69 s  ClockTime = 19 s

Time = 1.4

Courant Number mean: 0.0652116 max: 0.143642
DICPCG:  Solving for p, Initial residual = 0.00110598, Final residual = 5.32489e-05, No Iterations 94
smoothSolver:  Solving for omega, Initial residual = 0.000564308, Final residual = 1.08788e-06, No Iterations 1
DICPCG:  Solving for psi, Initial residual = 7.17719e-06, Final residual = 9.7141e-07, No Iterations 51
time step continuity errors : sum local = 3.29469e-06, global = -3.70442e-20, cumulative = -2.03002e-18
ExecutionTime = 18.81 s  ClockTime = 19 s

Time = 1.41

Courant Number mean: 0.0652146 max: 0.143648
DICPCG:  Solving for p, Initial residual = 0.00110575, Final residual = 5.47077e-05, No Iterations 97
smoothSolver:  Solving for omega, Initial residual = 0.000564333, Final residual = 1.09108e-06, No Iterations 1
DICPCG:  Solving for psi, Initial residual = 7.17724e-06, Final residual = 9.4817e-07, No Iterations 52
time step continuity errors : sum local = 3.2947e-06, global = -2.30925e-20, cumulative = -2.05312e-18
ExecutionTime = 18.94 s  ClockTime = 19 s

Time = 1.42

Courant Number mean: 0.0652176 max: 0.143654
DICPCG:  Solving for p, Initial residual = 0.00110615, Final residual = 4.97422e-05, No Iterations 245
smoothSolver:  Solving for omega, Initial residual = 0.000564362, Final residual = 1.09427e-06, No Iterations 1
DICPCG:  Solving for psi, Initial residual = 7.14552e-06, Final residual = 9.94908e-07, No Iterations 51
time step continuity errors : sum local = 3.29473e-06, global = -2.19241e-20, cumulative = -2.07504e-18
ExecutionTime = 19.14 s  ClockTime = 19 s

Time = 1.43

Courant Number mean: 0.0652206 max: 0.14366
DICPCG:  Solving for p, Initial residual = 0.00110594, Final residual = 5.12401e-05, No Iterations 85
smoothSolver:  Solving for omega, Initial residual = 0.000564389, Final residual = 1.09746e-06, No Iterations 1
DICPCG:  Solving for psi, Initial residual = 7.16553e-06, Final residual = 9.85126e-07, No Iterations 51
time step continuity errors : sum local = 3.29474e-06, global = -1.51372e-20, cumulative = -2.09018e-18
ExecutionTime = 19.26 s  ClockTime = 19 s

Time = 1.44

Courant Number mean: 0.0652236 max: 0.143666
DICPCG:  Solving for p, Initial residual = 0.00110645, Final residual = 5.27826e-05, No Iterations 85
smoothSolver:  Solving for omega, Initial residual = 0.00056442, Final residual = 1.10065e-06, No Iterations 1
DICPCG:  Solving for psi, Initial residual = 7.1883e-06, Final residual = 9.82406e-07, No Iterations 51
time step continuity errors : sum local = 3.29476e-06, global = -2.55495e-20, cumulative = -2.11573e-18
ExecutionTime = 19.38 s  ClockTime = 20 s

Time = 1.45

Courant Number mean: 0.0652266 max: 0.143672
DICPCG:  Solving for p, Initial residual = 0.00110919, Final residual = 5.38088e-05, No Iterations 85
smoothSolver:  Solving for omega, Initial residual = 0.00056445, Final residual = 1.10383e-06, No Iterations 1
DICPCG:  Solving for psi, Initial residual = 7.15132e-06, Final residual = 9.56272e-07, No Iterations 52
time step continuity errors : sum local = 3.29478e-06, global = -9.93113e-21, cumulative = -2.12566e-18
ExecutionTime = 19.5 s  ClockTime = 20 s

Time = 1.46

Courant Number mean: 0.0652296 max: 0.143677
DICPCG:  Solving for p, Initial residual = 0.00110971, Final residual = 5.34307e-05, No Iterations 86
smoothSolver:  Solving for omega, Initial residual = 0.000564481, Final residual = 1.107e-06, No Iterations 1
DICPCG:  Solving for psi, Initial residual = 7.13065e-06, Final residual = 9.50716e-07, No Iterations 52
time step continuity errors : sum local = 3.2948e-06, global = 1.0292e-20, cumulative = -2.11537e-18
ExecutionTime = 19.62 s  ClockTime = 20 s

Time = 1.47

Courant Number mean: 0.0652325 max: 0.143682
DICPCG:  Solving for p, Initial residual = 0.0011085, Final residual = 5.40993e-05, No Iterations 87
smoothSolver:  Solving for omega, Initial residual = 0.000564511, Final residual = 1.11017e-06, No Iterations 1
DICPCG:  Solving for psi, Initial residual = 7.14992e-06, Final residual = 8.98798e-07, No Iterations 52
time step continuity errors : sum local = 3.29482e-06, global = -6.37448e-21, cumulative = -2.12174e-18
ExecutionTime = 19.74 s  ClockTime = 20 s

Time = 1.48

Courant Number mean: 0.0652355 max: 0.143687
DICPCG:  Solving for p, Initial residual = 0.00110543, Final residual = 5.18636e-05, No Iterations 88
smoothSolver:  Solving for omega, Initial residual = 0.000564541, Final residual = 1.11333e-06, No Iterations 1
DICPCG:  Solving for psi, Initial residual = 7.12482e-06, Final residual = 9.81357e-07, No Iterations 51
time step continuity errors : sum local = 3.29484e-06, global = 1.4261e-21, cumulative = -2.12031e-18
ExecutionTime = 19.86 s  ClockTime = 20 s

Time = 1.49

Courant Number mean: 0.0652385 max: 0.143691
DICPCG:  Solving for p, Initial residual = 0.00110259, Final residual = 5.38469e-05, No Iterations 88
smoothSolver:  Solving for omega, Initial residual = 0.000564573, Final residual = 1.11649e-06, No Iterations 1
DICPCG:  Solving for psi, Initial residual = 7.16708e-06, Final residual = 9.74026e-07, No Iterations 51
time step continuity errors : sum local = 3.29485e-06, global = -1.03091e-20, cumulative = -2.13062e-18
ExecutionTime = 19.99 s  ClockTime = 20 s

Time = 1.5

Courant Number mean: 0.0652414 max: 0.143696
DICPCG:  Solving for p, Initial residual = 0.0011037, Final residual = 5.42722e-05, No Iterations 90
smoothSolver:  Solving for omega, Initial residual = 0.000564603, Final residual = 1.11964e-06, No Iterations 1
DICPCG:  Solving for psi, Initial residual = 7.17504e-06, Final residual = 9.82041e-07, No Iterations 51
time step continuity errors : sum local = 3.29488e-06, global = -2.23193e-20, cumulative = -2.15294e-18
ExecutionTime = 20.1 s  ClockTime = 20 s

Time = 1.51

Courant Number mean: 0.0652444 max: 0.1437
DICPCG:  Solving for p, Initial residual = 0.00110538, Final residual = 5.37442e-05, No Iterations 91
[...]
DICPCG:  Solving for p, Initial residual = 0.000831571, Final residual = 3.81497e-05, No Iterations 68
smoothSolver:  Solving for omega, Initial residual = 0.000510457, Final residual = 1.23772e-06, No Iterations 1
DICPCG:  Solving for psi, Initial residual = 6.18289e-06, Final residual = 9.77198e-07, No Iterations 43
time step continuity errors : sum local = 3.29671e-06, global = -4.61334e-21, cumulative = -2.53075e-17
ExecutionTime = 261.37 s  ClockTime = 263 s

Time = 19.64

Courant Number mean: 0.065143 max: 0.140492
DICPCG:  Solving for p, Initial residual = 0.000830902, Final residual = 3.82107e-05, No Iterations 68
smoothSolver:  Solving for omega, Initial residual = 0.000510205, Final residual = 1.23681e-06, No Iterations 1
DICPCG:  Solving for psi, Initial residual = 6.20998e-06, Final residual = 9.68394e-07, No Iterations 44
time step continuity errors : sum local = 3.29672e-06, global = -2.53948e-20, cumulative = -2.53329e-17
ExecutionTime = 261.49 s  ClockTime = 263 s

Time = 19.65

Courant Number mean: 0.0651423 max: 0.140511
DICPCG:  Solving for p, Initial residual = 0.000830696, Final residual = 4.00068e-05, No Iterations 68
smoothSolver:  Solving for omega, Initial residual = 0.000509956, Final residual = 1.23588e-06, No Iterations 1
DICPCG:  Solving for psi, Initial residual = 6.18745e-06, Final residual = 9.66687e-07, No Iterations 43
time step continuity errors : sum local = 3.29673e-06, global = -1.76716e-20, cumulative = -2.53505e-17
ExecutionTime = 261.59 s  ClockTime = 263 s

Time = 19.66

Courant Number mean: 0.0651415 max: 0.140529
DICPCG:  Solving for p, Initial residual = 0.000830148, Final residual = 4.06829e-05, No Iterations 68
smoothSolver:  Solving for omega, Initial residual = 0.000509707, Final residual = 1.23492e-06, No Iterations 1
DICPCG:  Solving for psi, Initial residual = 6.19793e-06, Final residual = 9.45713e-07, No Iterations 44
time step continuity errors : sum local = 3.29673e-06, global = -1.64087e-20, cumulative = -2.53669e-17
ExecutionTime = 261.7 s  ClockTime = 263 s

Time = 19.67

Courant Number mean: 0.0651407 max: 0.140548
DICPCG:  Solving for p, Initial residual = 0.000829572, Final residual = 3.71293e-05, No Iterations 68
smoothSolver:  Solving for omega, Initial residual = 0.00050945, Final residual = 1.23394e-06, No Iterations 1
DICPCG:  Solving for psi, Initial residual = 6.17432e-06, Final residual = 9.78982e-07, No Iterations 43
time step continuity errors : sum local = 3.29673e-06, global = -3.1838e-20, cumulative = -2.53988e-17
ExecutionTime = 261.8 s  ClockTime = 264 s

Time = 19.68

Courant Number mean: 0.0651399 max: 0.140565
DICPCG:  Solving for p, Initial residual = 0.000828891, Final residual = 3.74531e-05, No Iterations 69
smoothSolver:  Solving for omega, Initial residual = 0.000509185, Final residual = 1.23293e-06, No Iterations 1
DICPCG:  Solving for psi, Initial residual = 6.201e-06, Final residual = 9.72345e-07, No Iterations 44
time step continuity errors : sum local = 3.29673e-06, global = -1.93554e-20, cumulative = -2.54181e-17
ExecutionTime = 261.91 s  ClockTime = 264 s

Time = 19.69

Courant Number mean: 0.0651392 max: 0.140583
DICPCG:  Solving for p, Initial residual = 0.000828378, Final residual = 3.9978e-05, No Iterations 68
smoothSolver:  Solving for omega, Initial residual = 0.00050892, Final residual = 1.23189e-06, No Iterations 1
DICPCG:  Solving for psi, Initial residual = 6.18642e-06, Final residual = 9.6144e-07, No Iterations 43
time step continuity errors : sum local = 3.29674e-06, global = -3.45356e-21, cumulative = -2.54216e-17
ExecutionTime = 262.02 s  ClockTime = 264 s

Time = 19.7

Courant Number mean: 0.0651384 max: 0.1406
DICPCG:  Solving for p, Initial residual = 0.000828535, Final residual = 3.90027e-05, No Iterations 69
smoothSolver:  Solving for omega, Initial residual = 0.000508653, Final residual = 1.23082e-06, No Iterations 1
DICPCG:  Solving for psi, Initial residual = 6.18388e-06, Final residual = 9.47374e-07, No Iterations 44
time step continuity errors : sum local = 3.29674e-06, global = 3.47074e-21, cumulative = -2.54181e-17
ExecutionTime = 262.13 s  ClockTime = 264 s

Time = 19.71

Courant Number mean: 0.0651376 max: 0.140617
DICPCG:  Solving for p, Initial residual = 0.000827805, Final residual = 4.00472e-05, No Iterations 69
smoothSolver:  Solving for omega, Initial residual = 0.000508387, Final residual = 1.22973e-06, No Iterations 1
DICPCG:  Solving for psi, Initial residual = 6.16598e-06, Final residual = 9.66731e-07, No Iterations 43
time step continuity errors : sum local = 3.29675e-06, global = -2.63828e-20, cumulative = -2.54445e-17
ExecutionTime = 262.23 s  ClockTime = 264 s

Time = 19.72

Courant Number mean: 0.0651368 max: 0.140634
DICPCG:  Solving for p, Initial residual = 0.000827146, Final residual = 4.0531e-05, No Iterations 69
smoothSolver:  Solving for omega, Initial residual = 0.000508125, Final residual = 1.22864e-06, No Iterations 1
DICPCG:  Solving for psi, Initial residual = 6.18389e-06, Final residual = 9.62207e-07, No Iterations 44
time step continuity errors : sum local = 3.29675e-06, global = -2.42866e-20, cumulative = -2.54688e-17
ExecutionTime = 262.33 s  ClockTime = 264 s

Time = 19.73

Courant Number mean: 0.065136 max: 0.14065
DICPCG:  Solving for p, Initial residual = 0.000826432, Final residual = 3.86931e-05, No Iterations 70
smoothSolver:  Solving for omega, Initial residual = 0.000507868, Final residual = 1.22751e-06, No Iterations 1
DICPCG:  Solving for psi, Initial residual = 6.17321e-06, Final residual = 9.72003e-07, No Iterations 43
time step continuity errors : sum local = 3.29675e-06, global = -2.8436e-21, cumulative = -2.54716e-17
ExecutionTime = 262.44 s  ClockTime = 264 s

Time = 19.74

Courant Number mean: 0.0651352 max: 0.140666
DICPCG:  Solving for p, Initial residual = 0.000825904, Final residual = 3.9428e-05, No Iterations 70
smoothSolver:  Solving for omega, Initial residual = 0.000507613, Final residual = 1.22636e-06, No Iterations 1
DICPCG:  Solving for psi, Initial residual = 6.17649e-06, Final residual = 9.50566e-07, No Iterations 44
time step continuity errors : sum local = 3.29675e-06, global = -1.48623e-21, cumulative = -2.54731e-17
ExecutionTime = 262.54 s  ClockTime = 264 s

Time = 19.75

Courant Number mean: 0.0651344 max: 0.140682
DICPCG:  Solving for p, Initial residual = 0.000825649, Final residual = 3.99768e-05, No Iterations 70
smoothSolver:  Solving for omega, Initial residual = 0.00050735, Final residual = 1.22517e-06, No Iterations 1
DICPCG:  Solving for psi, Initial residual = 6.15367e-06, Final residual = 9.56855e-07, No Iterations 43
time step continuity errors : sum local = 3.29676e-06, global = 5.75593e-21, cumulative = -2.54674e-17
ExecutionTime = 262.64 s  ClockTime = 264 s

Time = 19.76

Courant Number mean: 0.0651336 max: 0.140699
DICPCG:  Solving for p, Initial residual = 0.000824476, Final residual = 3.79158e-05, No Iterations 70
smoothSolver:  Solving for omega, Initial residual = 0.000507083, Final residual = 1.22396e-06, No Iterations 1
DICPCG:  Solving for psi, Initial residual = 6.16726e-06, Final residual = 9.80805e-07, No Iterations 44
time step continuity errors : sum local = 3.29676e-06, global = -1.75255e-21, cumulative = -2.54691e-17
ExecutionTime = 262.75 s  ClockTime = 265 s

Time = 19.77

Courant Number mean: 0.0651328 max: 0.140721
DICPCG:  Solving for p, Initial residual = 0.000824182, Final residual = 4.09611e-05, No Iterations 232
smoothSolver:  Solving for omega, Initial residual = 0.000506825, Final residual = 1.22272e-06, No Iterations 1
DICPCG:  Solving for psi, Initial residual = 6.1792e-06, Final residual = 9.54413e-07, No Iterations 43
time step continuity errors : sum local = 3.29676e-06, global = -2.79292e-20, cumulative = -2.5497e-17
ExecutionTime = 262.99 s  ClockTime = 265 s

Time = 19.78

Courant Number mean: 0.065132 max: 0.140742
DICPCG:  Solving for p, Initial residual = 0.000829108, Final residual = 4.10846e-05, No Iterations 65
smoothSolver:  Solving for omega, Initial residual = 0.000506576, Final residual = 1.22145e-06, No Iterations 1
DICPCG:  Solving for psi, Initial residual = 6.15363e-06, Final residual = 9.9837e-07, No Iterations 43
time step continuity errors : sum local = 3.29676e-06, global = -4.93979e-21, cumulative = -2.5502e-17
ExecutionTime = 263.09 s  ClockTime = 265 s

Time = 19.79

Courant Number mean: 0.0651311 max: 0.140763
DICPCG:  Solving for p, Initial residual = 0.000826492, Final residual = 3.95252e-05, No Iterations 65
smoothSolver:  Solving for omega, Initial residual = 0.000506335, Final residual = 1.22014e-06, No Iterations 1
DICPCG:  Solving for psi, Initial residual = 6.19009e-06, Final residual = 9.06649e-07, No Iterations 44
time step continuity errors : sum local = 3.29677e-06, global = -1.78692e-21, cumulative = -2.55038e-17
ExecutionTime = 263.22 s  ClockTime = 265 s

Time = 19.8

Courant Number mean: 0.0651303 max: 0.140784
DICPCG:  Solving for p, Initial residual = 0.000824114, Final residual = 3.84959e-05, No Iterations 66
smoothSolver:  Solving for omega, Initial residual = 0.000506081, Final residual = 1.21885e-06, No Iterations 1
DICPCG:  Solving for psi, Initial residual = 6.12856e-06, Final residual = 9.67166e-07, No Iterations 43
time step continuity errors : sum local = 3.29677e-06, global = -1.57042e-20, cumulative = -2.55195e-17
ExecutionTime = 263.32 s  ClockTime = 265 s

Time = 19.81

Courant Number mean: 0.0651295 max: 0.140804
DICPCG:  Solving for p, Initial residual = 0.000823795, Final residual = 3.94916e-05, No Iterations 65
smoothSolver:  Solving for omega, Initial residual = 0.000505834, Final residual = 1.21758e-06, No Iterations 1
DICPCG:  Solving for psi, Initial residual = 6.14387e-06, Final residual = 9.99681e-07, No Iterations 43
time step continuity errors : sum local = 3.29677e-06, global = -2.08073e-20, cumulative = -2.55403e-17
ExecutionTime = 263.42 s  ClockTime = 265 s

Time = 19.82

Courant Number mean: 0.0651287 max: 0.140824
DICPCG:  Solving for p, Initial residual = 0.000825334, Final residual = 4.07184e-05, No Iterations 65
smoothSolver:  Solving for omega, Initial residual = 0.000505595, Final residual = 1.21631e-06, No Iterations 1
DICPCG:  Solving for psi, Initial residual = 6.18538e-06, Final residual = 8.948e-07, No Iterations 44
time step continuity errors : sum local = 3.29677e-06, global = -2.58244e-20, cumulative = -2.55661e-17
ExecutionTime = 263.54 s  ClockTime = 265 s

Time = 19.83

Courant Number mean: 0.0651279 max: 0.140844
DICPCG:  Solving for p, Initial residual = 0.000823634, Final residual = 3.91014e-05, No Iterations 66
smoothSolver:  Solving for omega, Initial residual = 0.000505352, Final residual = 1.21501e-06, No Iterations 1
DICPCG:  Solving for psi, Initial residual = 6.11e-06, Final residual = 9.65067e-07, No Iterations 43
time step continuity errors : sum local = 3.29677e-06, global = -2.11337e-21, cumulative = -2.55682e-17
ExecutionTime = 263.64 s  ClockTime = 265 s

Time = 19.84

Courant Number mean: 0.065127 max: 0.140863
DICPCG:  Solving for p, Initial residual = 0.000823426, Final residual = 3.63982e-05, No Iterations 66
smoothSolver:  Solving for omega, Initial residual = 0.000505099, Final residual = 1.21388e-06, No Iterations 1
DICPCG:  Solving for psi, Initial residual = 6.14064e-06, Final residual = 9.23991e-07, No Iterations 44
time step continuity errors : sum local = 3.29677e-06, global = 1.90719e-21, cumulative = -2.55663e-17
ExecutionTime = 263.74 s  ClockTime = 266 s

Time = 19.85

Courant Number mean: 0.0651262 max: 0.140883
DICPCG:  Solving for p, Initial residual = 0.000821855, Final residual = 3.94986e-05, No Iterations 66
smoothSolver:  Solving for omega, Initial residual = 0.000504856, Final residual = 1.21277e-06, No Iterations 1
DICPCG:  Solving for psi, Initial residual = 6.11649e-06, Final residual = 9.41492e-07, No Iterations 43
time step continuity errors : sum local = 3.29678e-06, global = -2.21389e-20, cumulative = -2.55884e-17
ExecutionTime = 263.85 s  ClockTime = 266 s

Time = 19.86

Courant Number mean: 0.0651253 max: 0.140902
DICPCG:  Solving for p, Initial residual = 0.000822466, Final residual = 3.99218e-05, No Iterations 66
smoothSolver:  Solving for omega, Initial residual = 0.000504619, Final residual = 1.21162e-06, No Iterations 1
DICPCG:  Solving for psi, Initial residual = 6.11966e-06, Final residual = 9.83306e-07, No Iterations 43
time step continuity errors : sum local = 3.29678e-06, global = 2.34533e-21, cumulative = -2.55861e-17
ExecutionTime = 263.97 s  ClockTime = 266 s

Time = 19.87

Courant Number mean: 0.0651245 max: 0.140921
DICPCG:  Solving for p, Initial residual = 0.000823222, Final residual = 3.68567e-05, No Iterations 66
smoothSolver:  Solving for omega, Initial residual = 0.000504377, Final residual = 1.21044e-06, No Iterations 1
DICPCG:  Solving for psi, Initial residual = 6.16509e-06, Final residual = 9.89061e-07, No Iterations 43
time step continuity errors : sum local = 3.29678e-06, global = -2.37368e-20, cumulative = -2.56098e-17
ExecutionTime = 264.08 s  ClockTime = 266 s

Time = 19.88

Courant Number mean: 0.0651237 max: 0.140939
DICPCG:  Solving for p, Initial residual = 0.000822181, Final residual = 4.0717e-05, No Iterations 66
smoothSolver:  Solving for omega, Initial residual = 0.000504126, Final residual = 1.20923e-06, No Iterations 1
DICPCG:  Solving for psi, Initial residual = 6.15713e-06, Final residual = 9.29717e-07, No Iterations 44
time step continuity errors : sum local = 3.29678e-06, global = -1.19586e-20, cumulative = -2.56218e-17
ExecutionTime = 264.19 s  ClockTime = 266 s

Time = 19.89

Courant Number mean: 0.0651228 max: 0.140957
DICPCG:  Solving for p, Initial residual = 0.000821312, Final residual = 4.09521e-05, No Iterations 65
smoothSolver:  Solving for omega, Initial residual = 0.000503871, Final residual = 1.20799e-06, No Iterations 1
DICPCG:  Solving for psi, Initial residual = 6.10599e-06, Final residual = 9.52806e-07, No Iterations 43
time step continuity errors : sum local = 3.29678e-06, global = -1.58073e-20, cumulative = -2.56376e-17
ExecutionTime = 264.3 s  ClockTime = 266 s

Time = 19.9

Courant Number mean: 0.065122 max: 0.140975
DICPCG:  Solving for p, Initial residual = 0.000822252, Final residual = 3.59539e-05, No Iterations 67
smoothSolver:  Solving for omega, Initial residual = 0.000503612, Final residual = 1.20673e-06, No Iterations 1
DICPCG:  Solving for psi, Initial residual = 6.10508e-06, Final residual = 8.90915e-07, No Iterations 44
time step continuity errors : sum local = 3.29677e-06, global = -2.14258e-20, cumulative = -2.5659e-17
ExecutionTime = 264.43 s  ClockTime = 266 s

Time = 19.91

Courant Number mean: 0.0651211 max: 0.140993
DICPCG:  Solving for p, Initial residual = 0.000818746, Final residual = 3.93065e-05, No Iterations 66
smoothSolver:  Solving for omega, Initial residual = 0.000503342, Final residual = 1.20545e-06, No Iterations 1
DICPCG:  Solving for psi, Initial residual = 6.07935e-06, Final residual = 9.47177e-07, No Iterations 43
time step continuity errors : sum local = 3.29678e-06, global = -8.33322e-21, cumulative = -2.56674e-17
ExecutionTime = 264.54 s  ClockTime = 266 s

Time = 19.92

Courant Number mean: 0.0651203 max: 0.14101
DICPCG:  Solving for p, Initial residual = 0.000819795, Final residual = 3.68183e-05, No Iterations 67
smoothSolver:  Solving for omega, Initial residual = 0.000503075, Final residual = 1.20415e-06, No Iterations 1
DICPCG:  Solving for psi, Initial residual = 6.10621e-06, Final residual = 9.69385e-07, No Iterations 43
time step continuity errors : sum local = 3.29678e-06, global = -1.73623e-20, cumulative = -2.56847e-17
ExecutionTime = 264.65 s  ClockTime = 266 s

Time = 19.93

Courant Number mean: 0.0651194 max: 0.141027
DICPCG:  Solving for p, Initial residual = 0.000819327, Final residual = 3.71099e-05, No Iterations 67
smoothSolver:  Solving for omega, Initial residual = 0.000502812, Final residual = 1.20283e-06, No Iterations 1
DICPCG:  Solving for psi, Initial residual = 6.13397e-06, Final residual = 9.87741e-07, No Iterations 43
time step continuity errors : sum local = 3.29678e-06, global = -1.64774e-20, cumulative = -2.57012e-17
ExecutionTime = 264.76 s  ClockTime = 267 s

Time = 19.94

Courant Number mean: 0.0651185 max: 0.141044
DICPCG:  Solving for p, Initial residual = 0.000819021, Final residual = 3.96796e-05, No Iterations 66
smoothSolver:  Solving for omega, Initial residual = 0.000502545, Final residual = 1.20147e-06, No Iterations 1
DICPCG:  Solving for psi, Initial residual = 6.13756e-06, Final residual = 9.1791e-07, No Iterations 44
time step continuity errors : sum local = 3.29678e-06, global = -1.6529e-20, cumulative = -2.57177e-17
ExecutionTime = 264.87 s  ClockTime = 267 s

Time = 19.95

Courant Number mean: 0.0651177 max: 0.14106
DICPCG:  Solving for p, Initial residual = 0.000818315, Final residual = 3.73802e-05, No Iterations 67
smoothSolver:  Solving for omega, Initial residual = 0.000502282, Final residual = 1.2001e-06, No Iterations 1
DICPCG:  Solving for psi, Initial residual = 6.07883e-06, Final residual = 9.45421e-07, No Iterations 43
time step continuity errors : sum local = 3.29677e-06, global = 7.04458e-22, cumulative = -2.5717e-17
ExecutionTime = 264.98 s  ClockTime = 267 s

Time = 19.96

Courant Number mean: 0.0651168 max: 0.141076
DICPCG:  Solving for p, Initial residual = 0.000817354, Final residual = 3.82383e-05, No Iterations 67
smoothSolver:  Solving for omega, Initial residual = 0.000502019, Final residual = 1.19871e-06, No Iterations 1
DICPCG:  Solving for psi, Initial residual = 6.08387e-06, Final residual = 8.7996e-07, No Iterations 44
time step continuity errors : sum local = 3.29677e-06, global = 2.90374e-21, cumulative = -2.57141e-17
ExecutionTime = 265.09 s  ClockTime = 267 s

Time = 19.97

Courant Number mean: 0.0651159 max: 0.141092
DICPCG:  Solving for p, Initial residual = 0.000816667, Final residual = 3.86731e-05, No Iterations 67
smoothSolver:  Solving for omega, Initial residual = 0.000501755, Final residual = 1.19729e-06, No Iterations 1
DICPCG:  Solving for psi, Initial residual = 6.04255e-06, Final residual = 9.35313e-07, No Iterations 43
time step continuity errors : sum local = 3.29677e-06, global = -1.17095e-20, cumulative = -2.57258e-17
ExecutionTime = 265.21 s  ClockTime = 267 s

Time = 19.98

Courant Number mean: 0.0651151 max: 0.141108
DICPCG:  Solving for p, Initial residual = 0.000816681, Final residual = 3.90916e-05, No Iterations 67
smoothSolver:  Solving for omega, Initial residual = 0.000501488, Final residual = 1.19585e-06, No Iterations 1
DICPCG:  Solving for psi, Initial residual = 6.06757e-06, Final residual = 9.58661e-07, No Iterations 43
time step continuity errors : sum local = 3.29677e-06, global = -2.44327e-20, cumulative = -2.57503e-17
ExecutionTime = 265.31 s  ClockTime = 267 s

Time = 19.99

Courant Number mean: 0.0651142 max: 0.141123
DICPCG:  Solving for p, Initial residual = 0.000816511, Final residual = 3.97347e-05, No Iterations 67
smoothSolver:  Solving for omega, Initial residual = 0.000501229, Final residual = 1.19438e-06, No Iterations 1
DICPCG:  Solving for psi, Initial residual = 6.10762e-06, Final residual = 9.83697e-07, No Iterations 43
time step continuity errors : sum local = 3.29677e-06, global = -2.57728e-21, cumulative = -2.57528e-17
ExecutionTime = 265.42 s  ClockTime = 267 s

Time = 20

Courant Number mean: 0.0651133 max: 0.141138
DICPCG:  Solving for p, Initial residual = 0.000816442, Final residual = 4.04466e-05, No Iterations 67
smoothSolver:  Solving for omega, Initial residual = 0.00050098, Final residual = 1.19287e-06, No Iterations 1
DICPCG:  Solving for psi, Initial residual = 6.10736e-06, Final residual = 9.08361e-07, No Iterations 44
time step continuity errors : sum local = 3.29677e-06, global = -2.17437e-20, cumulative = -2.57746e-17
ExecutionTime = 265.67 s  ClockTime = 267 s

End

Finalising parallel run
