/*---------------------------------------------------------------------------*\
| =========                 |                                                 |
| \\      /  F ield         | OpenFOAM: The Open Source CFD Toolbox           |
|  \\    /   O peration     | Version:  2212                                  |
|   \\  /    A nd           | Website:  www.openfoam.com                      |
|    \\/     M anipulation  |                                                 |
\*---------------------------------------------------------------------------*/
Build  : _70874860-20230612 OPENFOAM=2212 patch=230612 version=2212
Arch   : "LSB;label=32;scalar=64"
Exec   : ./vortiFoam -parallel -noFunctionObjects
Date   : Sep 28 2023
Time   : 09:26:46
Host   : Valinor-GL553VD
PID    : 5578
I/O    : uncollated
Case   : /home/yaevon/mhpc/lessons_phd/005_macfd/exercises/vortexMerge_vortiFoam
nProcs : 4
Hosts  :
(
    (Valinor-GL553VD 4)
)
Pstream initialized with:
    floatTransfer      : 0
    nProcsSimpleSum    : 0
    commsType          : nonBlocking
    polling iterations : 0
trapFpe: Floating point exception trapping enabled (FOAM_SIGFPE).
fileModificationChecking : Monitoring run-time modified files using timeStampMaster (fileModificationSkew 5, maxFileModificationPolls 20)
allowSystemOperations : Allowing user-supplied system call operations

// * * * * * * * * * * * * * * * * * * * * * * * * * * * * * * * * * * * * * //
Create time

Create mesh for time = 0


PISO: Operating solver in PISO mode

Reading transportProperties

Reading field p

Reading field U

Reading field omega

Reading field psi

Reading/calculating face flux field phi


pRefCell 0

pRefValue 0

Starting time loop

Time = 0.01

Courant Number mean: 0 max: 0
DICPCG:  Solving for p, Initial residual = 0, Final residual = 0, No Iterations 0
smoothSolver:  Solving for omega, Initial residual = 2.75359e-05, Final residual = 5.64517e-08, No Iterations 1
DICPCG:  Solving for psi, Initial residual = 1, Final residual = 0.0443376, No Iterations 89
time step continuity errors : sum local = 0, global = 0, cumulative = 0
ExecutionTime = 0.19 s  ClockTime = 0 s

Time = 0.02

Courant Number mean: 0 max: 0
DICPCG:  Solving for p, Initial residual = 0, Final residual = 0, No Iterations 0
smoothSolver:  Solving for omega, Initial residual = 2.75325e-05, Final residual = 5.64505e-08, No Iterations 1
DICPCG:  Solving for psi, Initial residual = 0.000158734, Final residual = 7.87636e-06, No Iterations 31
time step continuity errors : sum local = 3.29078e-06, global = -1.94671e-20, cumulative = -1.94671e-20
ExecutionTime = 0.22 s  ClockTime = 0 s

Time = 0.03

Courant Number mean: 0.0649453 max: 0.142164
DICPCG:  Solving for p, Initial residual = 1, Final residual = 0.0472566, No Iterations 98
smoothSolver:  Solving for omega, Initial residual = 0.000567553, Final residual = 2.71661e-06, No Iterations 1
DICPCG:  Solving for psi, Initial residual = 1.27862e-05, Final residual = 9.70637e-07, No Iterations 53
time step continuity errors : sum local = 3.29429e-06, global = -2.17351e-20, cumulative = -4.12022e-20
ExecutionTime = 0.3 s  ClockTime = 0 s

Time = 0.04

Courant Number mean: 0.0649394 max: 0.142156
DICPCG:  Solving for p, Initial residual = 0.0236622, Final residual = 0.00114094, No Iterations 246
smoothSolver:  Solving for omega, Initial residual = 0.000567685, Final residual = 2.72263e-06, No Iterations 1
DICPCG:  Solving for psi, Initial residual = 7.20181e-06, Final residual = 8.77215e-07, No Iterations 52
time step continuity errors : sum local = 3.29378e-06, global = -8.36758e-21, cumulative = -4.95698e-20
ExecutionTime = 0.43 s  ClockTime = 0 s

Time = 0.05

Courant Number mean: 0.0649377 max: 0.142161
DICPCG:  Solving for p, Initial residual = 0.00184405, Final residual = 9.05623e-05, No Iterations 63
smoothSolver:  Solving for omega, Initial residual = 0.000567586, Final residual = 2.72571e-06, No Iterations 1
DICPCG:  Solving for psi, Initial residual = 7.16839e-06, Final residual = 9.91264e-07, No Iterations 51
time step continuity errors : sum local = 3.29384e-06, global = -1.47936e-20, cumulative = -6.43634e-20
ExecutionTime = 0.5 s  ClockTime = 0 s

Time = 0.06

Courant Number mean: 0.0649368 max: 0.142167
DICPCG:  Solving for p, Initial residual = 0.00112227, Final residual = 5.39662e-05, No Iterations 87
smoothSolver:  Solving for omega, Initial residual = 0.000567442, Final residual = 2.72856e-06, No Iterations 1
DICPCG:  Solving for psi, Initial residual = 7.25002e-06, Final residual = 9.03576e-07, No Iterations 51
time step continuity errors : sum local = 3.29381e-06, global = -1.85393e-20, cumulative = -8.29026e-20
ExecutionTime = 0.58 s  ClockTime = 0 s

Time = 0.07

Courant Number mean: 0.0649359 max: 0.142174
DICPCG:  Solving for p, Initial residual = 0.00109803, Final residual = 5.24815e-05, No Iterations 87
smoothSolver:  Solving for omega, Initial residual = 0.000567294, Final residual = 2.73147e-06, No Iterations 1
DICPCG:  Solving for psi, Initial residual = 7.20151e-06, Final residual = 9.35882e-07, No Iterations 50
time step continuity errors : sum local = 3.29384e-06, global = -1.20789e-20, cumulative = -9.49815e-20
ExecutionTime = 0.66 s  ClockTime = 0 s

Time = 0.08

Courant Number mean: 0.0649351 max: 0.142179
DICPCG:  Solving for p, Initial residual = 0.00109649, Final residual = 5.33319e-05, No Iterations 87
smoothSolver:  Solving for omega, Initial residual = 0.000567144, Final residual = 2.73441e-06, No Iterations 1
DICPCG:  Solving for psi, Initial residual = 7.21908e-06, Final residual = 9.62242e-07, No Iterations 50
time step continuity errors : sum local = 3.2938e-06, global = -1.52575e-20, cumulative = -1.10239e-19
ExecutionTime = 0.74 s  ClockTime = 1 s

Time = 0.09

Courant Number mean: 0.0649342 max: 0.142186
DICPCG:  Solving for p, Initial residual = 0.00109663, Final residual = 5.1449e-05, No Iterations 88
smoothSolver:  Solving for omega, Initial residual = 0.000566993, Final residual = 2.7374e-06, No Iterations 1
DICPCG:  Solving for psi, Initial residual = 7.23593e-06, Final residual = 9.78803e-07, No Iterations 49
time step continuity errors : sum local = 3.29385e-06, global = -5.3092e-21, cumulative = -1.15548e-19
ExecutionTime = 0.82 s  ClockTime = 1 s

Time = 0.1

Courant Number mean: 0.0649335 max: 0.142191
DICPCG:  Solving for p, Initial residual = 0.0010968, Final residual = 5.4012e-05, No Iterations 88
smoothSolver:  Solving for omega, Initial residual = 0.00056684, Final residual = 2.74043e-06, No Iterations 1
DICPCG:  Solving for psi, Initial residual = 7.2677e-06, Final residual = 9.52185e-07, No Iterations 53
time step continuity errors : sum local = 3.29379e-06, global = -1.17524e-20, cumulative = -1.27301e-19
ExecutionTime = 0.9 s  ClockTime = 1 s

Time = 0.11

Courant Number mean: 0.0649328 max: 0.142196
DICPCG:  Solving for p, Initial residual = 0.00109676, Final residual = 5.39085e-05, No Iterations 90
smoothSolver:  Solving for omega, Initial residual = 0.000566685, Final residual = 2.74348e-06, No Iterations 1
DICPCG:  Solving for psi, Initial residual = 7.20775e-06, Final residual = 8.30179e-07, No Iterations 53
time step continuity errors : sum local = 3.29377e-06, global = -3.835e-20, cumulative = -1.65651e-19
ExecutionTime = 0.98 s  ClockTime = 1 s

Time = 0.12

Courant Number mean: 0.0649321 max: 0.142201
DICPCG:  Solving for p, Initial residual = 0.00109702, Final residual = 5.36137e-05, No Iterations 91
smoothSolver:  Solving for omega, Initial residual = 0.000566533, Final residual = 2.74654e-06, No Iterations 1
DICPCG:  Solving for psi, Initial residual = 7.13693e-06, Final residual = 7.87266e-07, No Iterations 52
time step continuity errors : sum local = 3.2938e-06, global = -2.04465e-21, cumulative = -1.67695e-19
ExecutionTime = 1.06 s  ClockTime = 1 s

Time = 0.13

Courant Number mean: 0.0649315 max: 0.142205
DICPCG:  Solving for p, Initial residual = 0.00109748, Final residual = 5.26594e-05, No Iterations 93
smoothSolver:  Solving for omega, Initial residual = 0.000566382, Final residual = 2.74963e-06, No Iterations 1
DICPCG:  Solving for psi, Initial residual = 7.104e-06, Final residual = 9.14795e-07, No Iterations 52
time step continuity errors : sum local = 3.29376e-06, global = -5.32639e-22, cumulative = -1.68228e-19
ExecutionTime = 1.14 s  ClockTime = 1 s

Time = 0.14

Courant Number mean: 0.0649309 max: 0.14221
DICPCG:  Solving for p, Initial residual = 0.00109429, Final residual = 5.36434e-05, No Iterations 94
smoothSolver:  Solving for omega, Initial residual = 0.000566236, Final residual = 2.75271e-06, No Iterations 1
DICPCG:  Solving for psi, Initial residual = 7.19903e-06, Final residual = 9.84366e-07, No Iterations 51
time step continuity errors : sum local = 3.29378e-06, global = -1.65633e-20, cumulative = -1.84791e-19
ExecutionTime = 1.22 s  ClockTime = 1 s

Time = 0.15

Courant Number mean: 0.0649305 max: 0.142214
DICPCG:  Solving for p, Initial residual = 0.00109657, Final residual = 5.42683e-05, No Iterations 247
smoothSolver:  Solving for omega, Initial residual = 0.000566094, Final residual = 2.75582e-06, No Iterations 1
DICPCG:  Solving for psi, Initial residual = 7.25408e-06, Final residual = 9.22809e-07, No Iterations 51
time step continuity errors : sum local = 3.29375e-06, global = -1.59276e-20, cumulative = -2.00719e-19
ExecutionTime = 1.36 s  ClockTime = 1 s

Time = 0.16

Courant Number mean: 0.06493 max: 0.142218
DICPCG:  Solving for p, Initial residual = 0.00110198, Final residual = 5.31792e-05, No Iterations 85
smoothSolver:  Solving for omega, Initial residual = 0.000565958, Final residual = 2.75893e-06, No Iterations 1
DICPCG:  Solving for psi, Initial residual = 7.22371e-06, Final residual = 9.72578e-07, No Iterations 50
time step continuity errors : sum local = 3.29374e-06, global = 7.26794e-21, cumulative = -1.93451e-19
ExecutionTime = 1.45 s  ClockTime = 1 s

Time = 0.17

Courant Number mean: 0.0649297 max: 0.142221
DICPCG:  Solving for p, Initial residual = 0.00109938, Final residual = 5.32579e-05, No Iterations 86
smoothSolver:  Solving for omega, Initial residual = 0.000565824, Final residual = 2.76203e-06, No Iterations 1
DICPCG:  Solving for psi, Initial residual = 7.23477e-06, Final residual = 9.58284e-07, No Iterations 50
time step continuity errors : sum local = 3.29373e-06, global = -3.26971e-20, cumulative = -2.26148e-19
ExecutionTime = 1.52 s  ClockTime = 1 s

Time = 0.18

Courant Number mean: 0.0649293 max: 0.142224
DICPCG:  Solving for p, Initial residual = 0.00109945, Final residual = 5.43102e-05, No Iterations 86
smoothSolver:  Solving for omega, Initial residual = 0.000565692, Final residual = 2.76514e-06, No Iterations 1
DICPCG:  Solving for psi, Initial residual = 7.24062e-06, Final residual = 8.56453e-07, No Iterations 53
time step continuity errors : sum local = 3.29374e-06, global = 1.36252e-20, cumulative = -2.12523e-19
ExecutionTime = 1.61 s  ClockTime = 1 s

Time = 0.19

Courant Number mean: 0.064929 max: 0.142227
DICPCG:  Solving for p, Initial residual = 0.00110084, Final residual = 5.30131e-05, No Iterations 87
smoothSolver:  Solving for omega, Initial residual = 0.000565564, Final residual = 2.76826e-06, No Iterations 1
DICPCG:  Solving for psi, Initial residual = 7.10949e-06, Final residual = 8.07194e-07, No Iterations 53
time step continuity errors : sum local = 3.2937e-06, global = -4.24393e-21, cumulative = -2.16767e-19
ExecutionTime = 1.68 s  ClockTime = 2 s

Time = 0.2

Courant Number mean: 0.0649288 max: 0.142229
DICPCG:  Solving for p, Initial residual = 0.00109922, Final residual = 5.03842e-05, No Iterations 88
smoothSolver:  Solving for omega, Initial residual = 0.000565435, Final residual = 2.77137e-06, No Iterations 1
DICPCG:  Solving for psi, Initial residual = 7.13842e-06, Final residual = 8.62108e-07, No Iterations 52
time step continuity errors : sum local = 3.29371e-06, global = -6.27139e-21, cumulative = -2.23038e-19
ExecutionTime = 1.77 s  ClockTime = 2 s

Time = 0.21

Courant Number mean: 0.0649287 max: 0.142232
DICPCG:  Solving for p, Initial residual = 0.00110201, Final residual = 5.26069e-05, No Iterations 88
smoothSolver:  Solving for omega, Initial residual = 0.000565306, Final residual = 2.7745e-06, No Iterations 1
DICPCG:  Solving for psi, Initial residual = 7.13928e-06, Final residual = 9.73315e-07, No Iterations 52
time step continuity errors : sum local = 3.29368e-06, global = -8.41913e-22, cumulative = -2.2388e-19
ExecutionTime = 1.85 s  ClockTime = 2 s

Time = 0.22

Courant Number mean: 0.0649288 max: 0.142234
DICPCG:  Solving for p, Initial residual = 0.00110144, Final residual = 5.37805e-05, No Iterations 89
smoothSolver:  Solving for omega, Initial residual = 0.000565178, Final residual = 2.77764e-06, No Iterations 1
DICPCG:  Solving for psi, Initial residual = 7.22821e-06, Final residual = 9.01751e-07, No Iterations 52
time step continuity errors : sum local = 3.29369e-06, global = -2.52574e-21, cumulative = -2.26406e-19
ExecutionTime = 1.94 s  ClockTime = 2 s

Time = 0.23

Courant Number mean: 0.0649289 max: 0.142235
DICPCG:  Solving for p, Initial residual = 0.00110019, Final residual = 5.28197e-05, No Iterations 91
smoothSolver:  Solving for omega, Initial residual = 0.000565049, Final residual = 2.78079e-06, No Iterations 1
DICPCG:  Solving for psi, Initial residual = 7.15731e-06, Final residual = 9.05358e-07, No Iterations 51
time step continuity errors : sum local = 3.29366e-06, global = -1.16837e-20, cumulative = -2.38089e-19
ExecutionTime = 2.02 s  ClockTime = 2 s

Time = 0.24

Courant Number mean: 0.0649292 max: 0.142237
DICPCG:  Solving for p, Initial residual = 0.00110255, Final residual = 5.45072e-05, No Iterations 92
smoothSolver:  Solving for omega, Initial residual = 0.000564919, Final residual = 2.78395e-06, No Iterations 1
DICPCG:  Solving for psi, Initial residual = 7.17048e-06, Final residual = 9.99532e-07, No Iterations 51
time step continuity errors : sum local = 3.29366e-06, global = -1.87454e-20, cumulative = -2.56835e-19
ExecutionTime = 2.1 s  ClockTime = 2 s

Time = 0.25

Courant Number mean: 0.0649296 max: 0.142238
DICPCG:  Solving for p, Initial residual = 0.00109967, Final residual = 5.24945e-05, No Iterations 94
smoothSolver:  Solving for omega, Initial residual = 0.00056479, Final residual = 2.78715e-06, No Iterations 1
DICPCG:  Solving for psi, Initial residual = 7.24567e-06, Final residual = 9.9036e-07, No Iterations 50
time step continuity errors : sum local = 3.29365e-06, global = 3.10992e-21, cumulative = -2.53725e-19
ExecutionTime = 2.18 s  ClockTime = 2 s

Time = 0.26

Courant Number mean: 0.06493 max: 0.142241
DICPCG:  Solving for p, Initial residual = 0.00109731, Final residual = 5.43752e-05, No Iterations 100
smoothSolver:  Solving for omega, Initial residual = 0.00056466, Final residual = 2.79037e-06, No Iterations 1
DICPCG:  Solving for psi, Initial residual = 7.24224e-06, Final residual = 9.841e-07, No Iterations 50
time step continuity errors : sum local = 3.29366e-06, global = -1.98279e-20, cumulative = -2.73553e-19
ExecutionTime = 2.26 s  ClockTime = 2 s

Time = 0.27

Courant Number mean: 0.0649305 max: 0.142248
DICPCG:  Solving for p, Initial residual = 0.00109922, Final residual = 5.43595e-05, No Iterations 247
smoothSolver:  Solving for omega, Initial residual = 0.000564531, Final residual = 2.79361e-06, No Iterations 1
DICPCG:  Solving for psi, Initial residual = 7.24127e-06, Final residual = 8.79646e-07, No Iterations 53
time step continuity errors : sum local = 3.29365e-06, global = -1.28864e-20, cumulative = -2.86439e-19
ExecutionTime = 2.4 s  ClockTime = 2 s

Time = 0.28

Courant Number mean: 0.064931 max: 0.142255
DICPCG:  Solving for p, Initial residual = 0.00110555, Final residual = 5.30993e-05, No Iterations 85
smoothSolver:  Solving for omega, Initial residual = 0.000564402, Final residual = 2.79686e-06, No Iterations 1
DICPCG:  Solving for psi, Initial residual = 7.12184e-06, Final residual = 8.81049e-07, No Iterations 53
time step continuity errors : sum local = 3.29362e-06, global = -2.43811e-20, cumulative = -3.1082e-19
ExecutionTime = 2.48 s  ClockTime = 2 s

Time = 0.29

Courant Number mean: 0.0649315 max: 0.142261
DICPCG:  Solving for p, Initial residual = 0.00110454, Final residual = 5.3318e-05, No Iterations 86
smoothSolver:  Solving for omega, Initial residual = 0.000564274, Final residual = 2.80011e-06, No Iterations 1
DICPCG:  Solving for psi, Initial residual = 7.17227e-06, Final residual = 8.6299e-07, No Iterations 52
time step continuity errors : sum local = 3.29364e-06, global = -2.88656e-21, cumulative = -3.13707e-19
ExecutionTime = 2.55 s  ClockTime = 2 s

Time = 0.3

Courant Number mean: 0.0649321 max: 0.142268
DICPCG:  Solving for p, Initial residual = 0.00110421, Final residual = 5.22169e-05, No Iterations 87
smoothSolver:  Solving for omega, Initial residual = 0.000564147, Final residual = 2.80336e-06, No Iterations 1
DICPCG:  Solving for psi, Initial residual = 7.1435e-06, Final residual = 9.44067e-07, No Iterations 52
time step continuity errors : sum local = 3.29365e-06, global = -2.35907e-20, cumulative = -3.37298e-19
ExecutionTime = 2.64 s  ClockTime = 2 s

Time = 0.31

Courant Number mean: 0.0649327 max: 0.142274
DICPCG:  Solving for p, Initial residual = 0.00110191, Final residual = 5.28555e-05, No Iterations 87
smoothSolver:  Solving for omega, Initial residual = 0.000564022, Final residual = 2.80661e-06, No Iterations 1
DICPCG:  Solving for psi, Initial residual = 7.20493e-06, Final residual = 9.98138e-07, No Iterations 51
time step continuity errors : sum local = 3.29363e-06, global = 8.59095e-23, cumulative = -3.37212e-19
ExecutionTime = 2.71 s  ClockTime = 3 s

Time = 0.32

Courant Number mean: 0.0649334 max: 0.14228
DICPCG:  Solving for p, Initial residual = 0.00110321, Final residual = 5.50613e-05, No Iterations 87
smoothSolver:  Solving for omega, Initial residual = 0.000563894, Final residual = 2.80986e-06, No Iterations 1
DICPCG:  Solving for psi, Initial residual = 7.21618e-06, Final residual = 9.53601e-07, No Iterations 51
time step continuity errors : sum local = 3.29362e-06, global = -3.079e-20, cumulative = -3.68002e-19
ExecutionTime = 2.8 s  ClockTime = 3 s

Time = 0.33

Courant Number mean: 0.0649341 max: 0.142286
DICPCG:  Solving for p, Initial residual = 0.00110401, Final residual = 5.24787e-05, No Iterations 88
smoothSolver:  Solving for omega, Initial residual = 0.000563769, Final residual = 2.81312e-06, No Iterations 1
DICPCG:  Solving for psi, Initial residual = 7.20671e-06, Final residual = 8.6904e-07, No Iterations 53
time step continuity errors : sum local = 3.29363e-06, global = -2.25942e-20, cumulative = -3.90596e-19
ExecutionTime = 2.87 s  ClockTime = 3 s

Time = 0.34

Courant Number mean: 0.0649348 max: 0.142291
DICPCG:  Solving for p, Initial residual = 0.00110598, Final residual = 5.34824e-05, No Iterations 89
smoothSolver:  Solving for omega, Initial residual = 0.000563644, Final residual = 2.81637e-06, No Iterations 1
DICPCG:  Solving for psi, Initial residual = 7.09419e-06, Final residual = 8.55155e-07, No Iterations 53
time step continuity errors : sum local = 3.29361e-06, global = -8.79713e-21, cumulative = -3.99393e-19
ExecutionTime = 2.96 s  ClockTime = 3 s

Time = 0.35

Courant Number mean: 0.0649355 max: 0.142296
DICPCG:  Solving for p, Initial residual = 0.00110193, Final residual = 5.19644e-05, No Iterations 91
smoothSolver:  Solving for omega, Initial residual = 0.000563517, Final residual = 2.81963e-06, No Iterations 1
DICPCG:  Solving for psi, Initial residual = 7.14926e-06, Final residual = 9.20063e-07, No Iterations 52
time step continuity errors : sum local = 3.29364e-06, global = 6.01366e-21, cumulative = -3.93379e-19
ExecutionTime = 3.04 s  ClockTime = 3 s

Time = 0.36

Courant Number mean: 0.0649363 max: 0.142301
DICPCG:  Solving for p, Initial residual = 0.00110081, Final residual = 5.42802e-05, No Iterations 92
smoothSolver:  Solving for omega, Initial residual = 0.00056339, Final residual = 2.8229e-06, No Iterations 1
DICPCG:  Solving for psi, Initial residual = 7.14712e-06, Final residual = 9.01291e-07, No Iterations 52
time step continuity errors : sum local = 3.29367e-06, global = -2.27488e-20, cumulative = -4.16128e-19
ExecutionTime = 3.13 s  ClockTime = 3 s

Time = 0.37

Courant Number mean: 0.0649371 max: 0.142305
DICPCG:  Solving for p, Initial residual = 0.00110251, Final residual = 5.31197e-05, No Iterations 94
smoothSolver:  Solving for omega, Initial residual = 0.000563262, Final residual = 2.82616e-06, No Iterations 1
DICPCG:  Solving for psi, Initial residual = 7.14911e-06, Final residual = 9.81266e-07, No Iterations 51
time step continuity errors : sum local = 3.29365e-06, global = -2.33846e-20, cumulative = -4.39513e-19
ExecutionTime = 3.21 s  ClockTime = 3 s

Time = 0.38

Courant Number mean: 0.0649379 max: 0.14231
DICPCG:  Solving for p, Initial residual = 0.00110351, Final residual = 5.46373e-05, No Iterations 100
smoothSolver:  Solving for omega, Initial residual = 0.000563133, Final residual = 2.82942e-06, No Iterations 1
DICPCG:  Solving for psi, Initial residual = 7.18907e-06, Final residual = 9.56854e-07, No Iterations 51
time step continuity errors : sum local = 3.29362e-06, global = -1.98623e-20, cumulative = -4.59375e-19
ExecutionTime = 3.3 s  ClockTime = 3 s

Time = 0.39

Courant Number mean: 0.0649388 max: 0.142313
DICPCG:  Solving for p, Initial residual = 0.0011033, Final residual = 5.29429e-05, No Iterations 247
smoothSolver:  Solving for omega, Initial residual = 0.000563003, Final residual = 2.83269e-06, No Iterations 1
DICPCG:  Solving for psi, Initial residual = 7.21534e-06, Final residual = 9.91927e-07, No Iterations 51
time step continuity errors : sum local = 3.29365e-06, global = 1.15806e-20, cumulative = -4.47794e-19
ExecutionTime = 3.44 s  ClockTime = 3 s

Time = 0.4

Courant Number mean: 0.0649396 max: 0.142317
DICPCG:  Solving for p, Initial residual = 0.00110789, Final residual = 5.23188e-05, No Iterations 85
smoothSolver:  Solving for omega, Initial residual = 0.000562877, Final residual = 2.83595e-06, No Iterations 1
DICPCG:  Solving for psi, Initial residual = 7.19562e-06, Final residual = 9.88135e-07, No Iterations 51
time step continuity errors : sum local = 3.29362e-06, global = 1.56012e-20, cumulative = -4.32193e-19
ExecutionTime = 3.52 s  ClockTime = 3 s

Time = 0.41

Courant Number mean: 0.0649405 max: 0.14232
DICPCG:  Solving for p, Initial residual = 0.00110405, Final residual = 5.29866e-05, No Iterations 86
smoothSolver:  Solving for omega, Initial residual = 0.000562754, Final residual = 2.83922e-06, No Iterations 1
DICPCG:  Solving for psi, Initial residual = 7.21761e-06, Final residual = 9.7924e-07, No Iterations 50
time step continuity errors : sum local = 3.29365e-06, global = -2.6357e-20, cumulative = -4.5855e-19
ExecutionTime = 3.6 s  ClockTime = 3 s

Time = 0.42

Courant Number mean: 0.0649414 max: 0.142324
DICPCG:  Solving for p, Initial residual = 0.00110449, Final residual = 5.18331e-05, No Iterations 87
smoothSolver:  Solving for omega, Initial residual = 0.000562633, Final residual = 2.84249e-06, No Iterations 1
DICPCG:  Solving for psi, Initial residual = 7.18246e-06, Final residual = 9.91596e-07, No Iterations 50
time step continuity errors : sum local = 3.29367e-06, global = 9.91395e-21, cumulative = -4.48636e-19
ExecutionTime = 3.68 s  ClockTime = 4 s

Time = 0.43

Courant Number mean: 0.0649424 max: 0.142326
DICPCG:  Solving for p, Initial residual = 0.00110276, Final residual = 5.28157e-05, No Iterations 87
smoothSolver:  Solving for omega, Initial residual = 0.000562514, Final residual = 2.84576e-06, No Iterations 1
DICPCG:  Solving for psi, Initial residual = 7.20375e-06, Final residual = 8.45753e-07, No Iterations 53
time step continuity errors : sum local = 3.29366e-06, global = 6.30575e-21, cumulative = -4.42331e-19
ExecutionTime = 3.76 s  ClockTime = 4 s

Time = 0.44

Courant Number mean: 0.0649433 max: 0.142329
DICPCG:  Solving for p, Initial residual = 0.00110649, Final residual = 5.48201e-05, No Iterations 87
smoothSolver:  Solving for omega, Initial residual = 0.000562399, Final residual = 2.84903e-06, No Iterations 1
DICPCG:  Solving for psi, Initial residual = 7.06675e-06, Final residual = 9.83969e-07, No Iterations 52
time step continuity errors : sum local = 3.29363e-06, global = -1.15806e-20, cumulative = -4.53911e-19
ExecutionTime = 3.84 s  ClockTime = 4 s

Time = 0.45

Courant Number mean: 0.0649442 max: 0.142331
DICPCG:  Solving for p, Initial residual = 0.00110624, Final residual = 5.28172e-05, No Iterations 88
smoothSolver:  Solving for omega, Initial residual = 0.000562285, Final residual = 2.85229e-06, No Iterations 1
DICPCG:  Solving for psi, Initial residual = 7.17605e-06, Final residual = 9.76444e-07, No Iterations 52
time step continuity errors : sum local = 3.29365e-06, global = -1.22163e-20, cumulative = -4.66128e-19
ExecutionTime = 3.93 s  ClockTime = 4 s

Time = 0.46

Courant Number mean: 0.0649452 max: 0.142333
DICPCG:  Solving for p, Initial residual = 0.00110288, Final residual = 5.46358e-05, No Iterations 88
smoothSolver:  Solving for omega, Initial residual = 0.000562171, Final residual = 2.85555e-06, No Iterations 1
DICPCG:  Solving for psi, Initial residual = 7.18222e-06, Final residual = 9.29609e-07, No Iterations 51
time step continuity errors : sum local = 3.29363e-06, global = -1.90719e-20, cumulative = -4.85199e-19
ExecutionTime = 4.01 s  ClockTime = 4 s

Time = 0.47

Courant Number mean: 0.0649462 max: 0.142335
DICPCG:  Solving for p, Initial residual = 0.00110337, Final residual = 5.26615e-05, No Iterations 91
smoothSolver:  Solving for omega, Initial residual = 0.00056206, Final residual = 2.8588e-06, No Iterations 1
DICPCG:  Solving for psi, Initial residual = 7.15254e-06, Final residual = 9.89595e-07, No Iterations 52
time step continuity errors : sum local = 3.29367e-06, global = -2.08073e-20, cumulative = -5.06007e-19
ExecutionTime = 4.1 s  ClockTime = 4 s

Time = 0.48

Courant Number mean: 0.0649472 max: 0.142336
DICPCG:  Solving for p, Initial residual = 0.00110078, Final residual = 5.43666e-05, No Iterations 92
smoothSolver:  Solving for omega, Initial residual = 0.00056195, Final residual = 2.86205e-06, No Iterations 1
DICPCG:  Solving for psi, Initial residual = 7.16056e-06, Final residual = 9.75251e-07, No Iterations 51
time step continuity errors : sum local = 3.29365e-06, global = -2.91233e-20, cumulative = -5.3513e-19
ExecutionTime = 4.18 s  ClockTime = 4 s

Time = 0.49

Courant Number mean: 0.0649482 max: 0.142337
DICPCG:  Solving for p, Initial residual = 0.00110321, Final residual = 5.39149e-05, No Iterations 94
smoothSolver:  Solving for omega, Initial residual = 0.000561838, Final residual = 2.86529e-06, No Iterations 1
DICPCG:  Solving for psi, Initial residual = 7.17049e-06, Final residual = 9.89423e-07, No Iterations 51
time step continuity errors : sum local = 3.29365e-06, global = -2.83673e-20, cumulative = -5.63497e-19
ExecutionTime = 4.26 s  ClockTime = 4 s

Time = 0.5

Courant Number mean: 0.0649493 max: 0.142338
DICPCG:  Solving for p, Initial residual = 0.00110222, Final residual = 5.43616e-05, No Iterations 100
smoothSolver:  Solving for omega, Initial residual = 0.000561728, Final residual = 2.86854e-06, No Iterations 1
DICPCG:  Solving for psi, Initial residual = 7.2072e-06, Final residual = 8.46368e-07, No Iterations 53
time step continuity errors : sum local = 3.29364e-06, global = 1.54637e-22, cumulative = -5.63343e-19
ExecutionTime = 4.35 s  ClockTime = 4 s

Time = 0.51

Courant Number mean: 0.0649503 max: 0.142338
DICPCG:  Solving for p, Initial residual = 0.00110711, Final residual = 5.21464e-05, No Iterations 247
smoothSolver:  Solving for omega, Initial residual = 0.000561619, Final residual = 2.8718e-06, No Iterations 1
DICPCG:  Solving for psi, Initial residual = 7.03851e-06, Final residual = 9.82342e-07, No Iterations 52
time step continuity errors : sum local = 3.29365e-06, global = -1.36596e-20, cumulative = -5.77002e-19
ExecutionTime = 4.48 s  ClockTime = 4 s

Time = 0.52

Courant Number mean: 0.0649514 max: 0.142339
DICPCG:  Solving for p, Initial residual = 0.00110749, Final residual = 5.33262e-05, No Iterations 85
smoothSolver:  Solving for omega, Initial residual = 0.000561509, Final residual = 2.87506e-06, No Iterations 1
DICPCG:  Solving for psi, Initial residual = 7.13573e-06, Final residual = 8.48654e-07, No Iterations 53
time step continuity errors : sum local = 3.29365e-06, global = -4.50166e-21, cumulative = -5.81504e-19
ExecutionTime = 4.56 s  ClockTime = 4 s

Time = 0.53

Courant Number mean: 0.0649525 max: 0.142339
DICPCG:  Solving for p, Initial residual = 0.00110642, Final residual = 5.49388e-05, No Iterations 86
smoothSolver:  Solving for omega, Initial residual = 0.000561398, Final residual = 2.87833e-06, No Iterations 1
DICPCG:  Solving for psi, Initial residual = 7.03626e-06, Final residual = 9.4569e-07, No Iterations 52
time step continuity errors : sum local = 3.29366e-06, global = -5.03429e-21, cumulative = -5.86538e-19
ExecutionTime = 4.64 s  ClockTime = 4 s

Time = 0.54

Courant Number mean: 0.0649537 max: 0.142338
DICPCG:  Solving for p, Initial residual = 0.00111067, Final residual = 5.28346e-05, No Iterations 87
smoothSolver:  Solving for omega, Initial residual = 0.000561288, Final residual = 2.88164e-06, No Iterations 1
DICPCG:  Solving for psi, Initial residual = 7.12291e-06, Final residual = 9.422e-07, No Iterations 52
time step continuity errors : sum local = 3.29366e-06, global = -1.95874e-20, cumulative = -6.06126e-19
ExecutionTime = 4.72 s  ClockTime = 5 s

Time = 0.55

Courant Number mean: 0.0649549 max: 0.142338
DICPCG:  Solving for p, Initial residual = 0.00110831, Final residual = 5.38009e-05, No Iterations 87
smoothSolver:  Solving for omega, Initial residual = 0.000561178, Final residual = 2.88495e-06, No Iterations 1
DICPCG:  Solving for psi, Initial residual = 7.14682e-06, Final residual = 9.88005e-07, No Iterations 51
time step continuity errors : sum local = 3.29366e-06, global = -9.91395e-21, cumulative = -6.1604e-19
ExecutionTime = 4.8 s  ClockTime = 5 s

Time = 0.56

Courant Number mean: 0.0649562 max: 0.142337
DICPCG:  Solving for p, Initial residual = 0.00110947, Final residual = 5.52165e-05, No Iterations 87
smoothSolver:  Solving for omega, Initial residual = 0.000561069, Final residual = 2.88827e-06, No Iterations 1
DICPCG:  Solving for psi, Initial residual = 7.14761e-06, Final residual = 9.22508e-07, No Iterations 53
time step continuity errors : sum local = 3.29364e-06, global = 2.9381e-21, cumulative = -6.13101e-19
ExecutionTime = 4.88 s  ClockTime = 5 s

Time = 0.57

Courant Number mean: 0.0649576 max: 0.142336
DICPCG:  Solving for p, Initial residual = 0.00111039, Final residual = 5.36292e-05, No Iterations 88
smoothSolver:  Solving for omega, Initial residual = 0.000560961, Final residual = 2.89159e-06, No Iterations 1
DICPCG:  Solving for psi, Initial residual = 7.07538e-06, Final residual = 9.21479e-07, No Iterations 53
time step continuity errors : sum local = 3.29368e-06, global = -1.84705e-20, cumulative = -6.31572e-19
ExecutionTime = 4.96 s  ClockTime = 5 s

Time = 0.58

Courant Number mean: 0.064959 max: 0.142337
DICPCG:  Solving for p, Initial residual = 0.00111128, Final residual = 5.55582e-05, No Iterations 88
smoothSolver:  Solving for omega, Initial residual = 0.000560855, Final residual = 2.89492e-06, No Iterations 1
DICPCG:  Solving for psi, Initial residual = 7.11455e-06, Final residual = 9.89088e-07, No Iterations 52
time step continuity errors : sum local = 3.29364e-06, global = -3.00168e-20, cumulative = -6.61589e-19
ExecutionTime = 5.05 s  ClockTime = 5 s

Time = 0.59

Courant Number mean: 0.0649604 max: 0.142342
DICPCG:  Solving for p, Initial residual = 0.00110618, Final residual = 5.31391e-05, No Iterations 91
smoothSolver:  Solving for omega, Initial residual = 0.000560748, Final residual = 2.89824e-06, No Iterations 1
DICPCG:  Solving for psi, Initial residual = 7.14284e-06, Final residual = 9.6347e-07, No Iterations 52
time step continuity errors : sum local = 3.29364e-06, global = -6.25421e-21, cumulative = -6.67843e-19
ExecutionTime = 5.13 s  ClockTime = 5 s

Time = 0.6

Courant Number mean: 0.0649618 max: 0.142346
DICPCG:  Solving for p, Initial residual = 0.00110176, Final residual = 5.47825e-05, No Iterations 92
smoothSolver:  Solving for omega, Initial residual = 0.000560643, Final residual = 2.90156e-06, No Iterations 1
DICPCG:  Solving for psi, Initial residual = 7.12951e-06, Final residual = 8.1142e-07, No Iterations 53
time step continuity errors : sum local = 3.29364e-06, global = -1.07902e-20, cumulative = -6.78633e-19
ExecutionTime = 5.21 s  ClockTime = 5 s

Time = 0.61

Courant Number mean: 0.0649633 max: 0.142351
DICPCG:  Solving for p, Initial residual = 0.00110327, Final residual = 5.39941e-05, No Iterations 94
smoothSolver:  Solving for omega, Initial residual = 0.000560537, Final residual = 2.90488e-06, No Iterations 1
DICPCG:  Solving for psi, Initial residual = 7.02039e-06, Final residual = 9.86094e-07, No Iterations 51
time step continuity errors : sum local = 3.29367e-06, global = 1.89001e-22, cumulative = -6.78444e-19
ExecutionTime = 5.29 s  ClockTime = 5 s

Time = 0.62

Courant Number mean: 0.0649648 max: 0.142355
DICPCG:  Solving for p, Initial residual = 0.00110564, Final residual = 5.45069e-05, No Iterations 100
smoothSolver:  Solving for omega, Initial residual = 0.000560432, Final residual = 2.90819e-06, No Iterations 1
DICPCG:  Solving for psi, Initial residual = 7.16656e-06, Final residual = 9.03424e-07, No Iterations 52
time step continuity errors : sum local = 3.29364e-06, global = -2.17351e-20, cumulative = -7.00179e-19
ExecutionTime = 5.38 s  ClockTime = 5 s

Time = 0.63

Courant Number mean: 0.0649663 max: 0.142359
DICPCG:  Solving for p, Initial residual = 0.00110439, Final residual = 5.21097e-05, No Iterations 247
smoothSolver:  Solving for omega, Initial residual = 0.000560328, Final residual = 2.9115e-06, No Iterations 1
DICPCG:  Solving for psi, Initial residual = 7.05173e-06, Final residual = 7.6739e-07, No Iterations 53
time step continuity errors : sum local = 3.29365e-06, global = -3.1735e-20, cumulative = -7.31914e-19
ExecutionTime = 5.53 s  ClockTime = 5 s

Time = 0.64

Courant Number mean: 0.0649678 max: 0.142363
DICPCG:  Solving for p, Initial residual = 0.00110748, Final residual = 5.35038e-05, No Iterations 85
smoothSolver:  Solving for omega, Initial residual = 0.000560222, Final residual = 2.91481e-06, No Iterations 1
DICPCG:  Solving for psi, Initial residual = 6.97971e-06, Final residual = 8.6043e-07, No Iterations 52
time step continuity errors : sum local = 3.29366e-06, global = 2.76628e-21, cumulative = -7.29148e-19
ExecutionTime = 5.61 s  ClockTime = 5 s

Time = 0.65

Courant Number mean: 0.0649694 max: 0.142366
DICPCG:  Solving for p, Initial residual = 0.00111062, Final residual = 5.53712e-05, No Iterations 85
smoothSolver:  Solving for omega, Initial residual = 0.000560116, Final residual = 2.91813e-06, No Iterations 1
DICPCG:  Solving for psi, Initial residual = 7.04364e-06, Final residual = 9.29299e-07, No Iterations 52
time step continuity errors : sum local = 3.29365e-06, global = -4.39856e-21, cumulative = -7.33547e-19
ExecutionTime = 5.69 s  ClockTime = 6 s

Time = 0.66

Courant Number mean: 0.064971 max: 0.142369
DICPCG:  Solving for p, Initial residual = 0.001104, Final residual = 5.1938e-05, No Iterations 87
smoothSolver:  Solving for omega, Initial residual = 0.000560012, Final residual = 2.92144e-06, No Iterations 1
DICPCG:  Solving for psi, Initial residual = 7.11357e-06, Final residual = 9.06971e-07, No Iterations 52
time step continuity errors : sum local = 3.29366e-06, global = -1.37627e-20, cumulative = -7.47309e-19
ExecutionTime = 5.78 s  ClockTime = 6 s

Time = 0.67

Courant Number mean: 0.0649726 max: 0.142372
DICPCG:  Solving for p, Initial residual = 0.00110104, Final residual = 5.37234e-05, No Iterations 87
smoothSolver:  Solving for omega, Initial residual = 0.000559912, Final residual = 2.92476e-06, No Iterations 1
DICPCG:  Solving for psi, Initial residual = 7.07301e-06, Final residual = 9.76952e-07, No Iterations 52
time step continuity errors : sum local = 3.29367e-06, global = -2.76628e-21, cumulative = -7.50076e-19
ExecutionTime = 5.85 s  ClockTime = 6 s

Time = 0.68

Courant Number mean: 0.0649742 max: 0.142374
DICPCG:  Solving for p, Initial residual = 0.00110442, Final residual = 5.51319e-05, No Iterations 87
smoothSolver:  Solving for omega, Initial residual = 0.000559813, Final residual = 2.92808e-06, No Iterations 1
DICPCG:  Solving for psi, Initial residual = 7.1511e-06, Final residual = 9.71559e-07, No Iterations 51
time step continuity errors : sum local = 3.29367e-06, global = -4.82811e-21, cumulative = -7.54904e-19
ExecutionTime = 5.93 s  ClockTime = 6 s

Time = 0.69

Courant Number mean: 0.0649758 max: 0.142377
DICPCG:  Solving for p, Initial residual = 0.00110445, Final residual = 5.27542e-05, No Iterations 88
smoothSolver:  Solving for omega, Initial residual = 0.000559717, Final residual = 2.9314e-06, No Iterations 1
DICPCG:  Solving for psi, Initial residual = 7.14042e-06, Final residual = 9.92084e-07, No Iterations 52
time step continuity errors : sum local = 3.29367e-06, global = -2.92264e-20, cumulative = -7.8413e-19
ExecutionTime = 6.01 s  ClockTime = 6 s

Time = 0.7

Courant Number mean: 0.0649775 max: 0.142379
DICPCG:  Solving for p, Initial residual = 0.0011065, Final residual = 5.40473e-05, No Iterations 89
smoothSolver:  Solving for omega, Initial residual = 0.000559621, Final residual = 2.93472e-06, No Iterations 1
DICPCG:  Solving for psi, Initial residual = 7.11733e-06, Final residual = 9.97071e-07, No Iterations 51
time step continuity errors : sum local = 3.29367e-06, global = -2.83673e-20, cumulative = -8.12497e-19
ExecutionTime = 6.09 s  ClockTime = 6 s

Time = 0.71

Courant Number mean: 0.0649791 max: 0.14238
DICPCG:  Solving for p, Initial residual = 0.00110769, Final residual = 5.53752e-05, No Iterations 90
smoothSolver:  Solving for omega, Initial residual = 0.000559527, Final residual = 2.93803e-06, No Iterations 1
DICPCG:  Solving for psi, Initial residual = 7.13235e-06, Final residual = 9.62025e-07, No Iterations 53
time step continuity errors : sum local = 3.29368e-06, global = -1.05497e-20, cumulative = -8.23047e-19
ExecutionTime = 6.17 s  ClockTime = 6 s

Time = 0.72

Courant Number mean: 0.0649808 max: 0.142382
DICPCG:  Solving for p, Initial residual = 0.00110807, Final residual = 5.52136e-05, No Iterations 92
smoothSolver:  Solving for omega, Initial residual = 0.000559436, Final residual = 2.94134e-06, No Iterations 1
DICPCG:  Solving for psi, Initial residual = 7.1236e-06, Final residual = 9.48923e-07, No Iterations 51
time step continuity errors : sum local = 3.29367e-06, global = -1.95014e-20, cumulative = -8.42548e-19
ExecutionTime = 6.26 s  ClockTime = 6 s

Time = 0.73

Courant Number mean: 0.0649825 max: 0.142383
DICPCG:  Solving for p, Initial residual = 0.00110452, Final residual = 5.3855e-05, No Iterations 94
smoothSolver:  Solving for omega, Initial residual = 0.000559347, Final residual = 2.94464e-06, No Iterations 1
DICPCG:  Solving for psi, Initial residual = 7.11916e-06, Final residual = 9.06084e-07, No Iterations 52
time step continuity errors : sum local = 3.29368e-06, global = -2.56182e-20, cumulative = -8.68167e-19
ExecutionTime = 6.34 s  ClockTime = 6 s

Time = 0.74

Courant Number mean: 0.0649842 max: 0.142384
DICPCG:  Solving for p, Initial residual = 0.00109799, Final residual = 5.21267e-05, No Iterations 247
smoothSolver:  Solving for omega, Initial residual = 0.00055926, Final residual = 2.94794e-06, No Iterations 1
DICPCG:  Solving for psi, Initial residual = 7.05135e-06, Final residual = 7.8611e-07, No Iterations 53
time step continuity errors : sum local = 3.29369e-06, global = -8.79713e-21, cumulative = -8.76964e-19
ExecutionTime = 6.48 s  ClockTime = 6 s

Time = 0.75

Courant Number mean: 0.0649859 max: 0.142385
DICPCG:  Solving for p, Initial residual = 0.00110338, Final residual = 5.26031e-05, No Iterations 85
smoothSolver:  Solving for omega, Initial residual = 0.000559171, Final residual = 2.95123e-06, No Iterations 1
DICPCG:  Solving for psi, Initial residual = 6.98345e-06, Final residual = 8.60483e-07, No Iterations 52
time step continuity errors : sum local = 3.29369e-06, global = -1.34706e-20, cumulative = -8.90434e-19
ExecutionTime = 6.57 s  ClockTime = 6 s

Time = 0.76

Courant Number mean: 0.0649876 max: 0.142385
DICPCG:  Solving for p, Initial residual = 0.0011052, Final residual = 5.39289e-05, No Iterations 86
smoothSolver:  Solving for omega, Initial residual = 0.000559082, Final residual = 2.95452e-06, No Iterations 1
DICPCG:  Solving for psi, Initial residual = 7.02752e-06, Final residual = 9.16134e-07, No Iterations 52
time step continuity errors : sum local = 3.29369e-06, global = -2.30237e-20, cumulative = -9.13458e-19
ExecutionTime = 6.65 s  ClockTime = 6 s

Time = 0.77

Courant Number mean: 0.0649893 max: 0.142385
DICPCG:  Solving for p, Initial residual = 0.00110474, Final residual = 5.2249e-05, No Iterations 87
smoothSolver:  Solving for omega, Initial residual = 0.000558997, Final residual = 2.95781e-06, No Iterations 1
DICPCG:  Solving for psi, Initial residual = 7.07833e-06, Final residual = 9.06055e-07, No Iterations 52
time step continuity errors : sum local = 3.29369e-06, global = -1.08074e-20, cumulative = -9.24266e-19
ExecutionTime = 6.73 s  ClockTime = 7 s

Time = 0.78

Courant Number mean: 0.064991 max: 0.142385
DICPCG:  Solving for p, Initial residual = 0.0011052, Final residual = 5.41573e-05, No Iterations 87
smoothSolver:  Solving for omega, Initial residual = 0.000558912, Final residual = 2.96112e-06, No Iterations 1
DICPCG:  Solving for psi, Initial residual = 7.05539e-06, Final residual = 9.97486e-07, No Iterations 52
time step continuity errors : sum local = 3.2937e-06, global = -2.95013e-20, cumulative = -9.53767e-19
ExecutionTime = 6.81 s  ClockTime = 7 s

Time = 0.79

Courant Number mean: 0.0649928 max: 0.142385
DICPCG:  Solving for p, Initial residual = 0.00110852, Final residual = 4.99961e-05, No Iterations 88
smoothSolver:  Solving for omega, Initial residual = 0.000558827, Final residual = 2.96444e-06, No Iterations 1
DICPCG:  Solving for psi, Initial residual = 7.14095e-06, Final residual = 9.39202e-07, No Iterations 52
time step continuity errors : sum local = 3.2937e-06, global = -1.00342e-20, cumulative = -9.63801e-19
ExecutionTime = 6.89 s  ClockTime = 7 s

Time = 0.8

Courant Number mean: 0.0649945 max: 0.142384
DICPCG:  Solving for p, Initial residual = 0.00110628, Final residual = 5.24194e-05, No Iterations 88
smoothSolver:  Solving for omega, Initial residual = 0.00055874, Final residual = 2.96776e-06, No Iterations 1
DICPCG:  Solving for psi, Initial residual = 7.09245e-06, Final residual = 9.93071e-07, No Iterations 51
time step continuity errors : sum local = 3.2937e-06, global = -8.76277e-21, cumulative = -9.72564e-19
ExecutionTime = 6.97 s  ClockTime = 7 s

Time = 0.81

Courant Number mean: 0.0649963 max: 0.142383
DICPCG:  Solving for p, Initial residual = 0.00110303, Final residual = 5.3929e-05, No Iterations 89
smoothSolver:  Solving for omega, Initial residual = 0.000558654, Final residual = 2.97107e-06, No Iterations 1
DICPCG:  Solving for psi, Initial residual = 7.10486e-06, Final residual = 9.95527e-07, No Iterations 51
time step continuity errors : sum local = 3.29372e-06, global = -1.2182e-20, cumulative = -9.84746e-19
ExecutionTime = 7.05 s  ClockTime = 7 s

Time = 0.82

Courant Number mean: 0.064998 max: 0.142382
DICPCG:  Solving for p, Initial residual = 0.00110072, Final residual = 5.11707e-05, No Iterations 91
smoothSolver:  Solving for omega, Initial residual = 0.000558567, Final residual = 2.9744e-06, No Iterations 1
DICPCG:  Solving for psi, Initial residual = 7.14281e-06, Final residual = 9.34659e-07, No Iterations 53
time step continuity errors : sum local = 3.29371e-06, global = -2.1065e-20, cumulative = -1.00581e-18
ExecutionTime = 7.14 s  ClockTime = 7 s

Time = 0.83

Courant Number mean: 0.0649998 max: 0.14238
DICPCG:  Solving for p, Initial residual = 0.00110357, Final residual = 5.49319e-05, No Iterations 92
smoothSolver:  Solving for omega, Initial residual = 0.000558481, Final residual = 2.97772e-06, No Iterations 1
DICPCG:  Solving for psi, Initial residual = 7.03539e-06, Final residual = 9.4083e-07, No Iterations 52
time step continuity errors : sum local = 3.29372e-06, global = -1.50857e-20, cumulative = -1.0209e-18
ExecutionTime = 7.22 s  ClockTime = 7 s

Time = 0.84

Courant Number mean: 0.0650015 max: 0.142378
DICPCG:  Solving for p, Initial residual = 0.00110288, Final residual = 5.36327e-05, No Iterations 94
smoothSolver:  Solving for omega, Initial residual = 0.000558395, Final residual = 2.98105e-06, No Iterations 1
DICPCG:  Solving for psi, Initial residual = 7.05244e-06, Final residual = 9.83801e-07, No Iterations 52
time step continuity errors : sum local = 3.29372e-06, global = -4.61506e-20, cumulative = -1.06705e-18
ExecutionTime = 7.31 s  ClockTime = 7 s

Time = 0.85

Courant Number mean: 0.0650033 max: 0.142376
DICPCG:  Solving for p, Initial residual = 0.00110159, Final residual = 5.50594e-05, No Iterations 99
smoothSolver:  Solving for omega, Initial residual = 0.000558308, Final residual = 2.98437e-06, No Iterations 1
DICPCG:  Solving for psi, Initial residual = 7.11112e-06, Final residual = 9.33627e-07, No Iterations 52
time step continuity errors : sum local = 3.29372e-06, global = -4.02056e-21, cumulative = -1.07107e-18
ExecutionTime = 7.39 s  ClockTime = 7 s

Time = 0.86

Courant Number mean: 0.0650051 max: 0.142374
DICPCG:  Solving for p, Initial residual = 0.00110277, Final residual = 5.23062e-05, No Iterations 247
smoothSolver:  Solving for omega, Initial residual = 0.000558222, Final residual = 2.98769e-06, No Iterations 1
DICPCG:  Solving for psi, Initial residual = 7.06139e-06, Final residual = 8.77168e-07, No Iterations 53
time step continuity errors : sum local = 3.29373e-06, global = -3.0704e-20, cumulative = -1.10177e-18
ExecutionTime = 7.53 s  ClockTime = 7 s

Time = 0.87

Courant Number mean: 0.0650069 max: 0.142372
DICPCG:  Solving for p, Initial residual = 0.00111425, Final residual = 5.18537e-05, No Iterations 85
smoothSolver:  Solving for omega, Initial residual = 0.000558136, Final residual = 2.99102e-06, No Iterations 1
DICPCG:  Solving for psi, Initial residual = 6.98869e-06, Final residual = 9.6573e-07, No Iterations 52
time step continuity errors : sum local = 3.29373e-06, global = -1.22335e-20, cumulative = -1.11401e-18
ExecutionTime = 7.61 s  ClockTime = 7 s

Time = 0.88

Courant Number mean: 0.0650088 max: 0.142369
DICPCG:  Solving for p, Initial residual = 0.00111573, Final residual = 5.40626e-05, No Iterations 85
smoothSolver:  Solving for omega, Initial residual = 0.000558052, Final residual = 2.99436e-06, No Iterations 1
DICPCG:  Solving for psi, Initial residual = 7.06574e-06, Final residual = 9.90003e-07, No Iterations 52
time step continuity errors : sum local = 3.29374e-06, global = -2.19413e-20, cumulative = -1.13595e-18
ExecutionTime = 7.69 s  ClockTime = 8 s

Time = 0.89

Courant Number mean: 0.0650107 max: 0.142368
DICPCG:  Solving for p, Initial residual = 0.00111311, Final residual = 5.55771e-05, No Iterations 85
smoothSolver:  Solving for omega, Initial residual = 0.000557967, Final residual = 2.99768e-06, No Iterations 1
DICPCG:  Solving for psi, Initial residual = 7.10827e-06, Final residual = 9.567e-07, No Iterations 52
time step continuity errors : sum local = 3.29375e-06, global = -1.64946e-20, cumulative = -1.15244e-18
ExecutionTime = 7.77 s  ClockTime = 8 s

Time = 0.9

Courant Number mean: 0.0650127 max: 0.142371
DICPCG:  Solving for p, Initial residual = 0.00110868, Final residual = 5.45897e-05, No Iterations 87
smoothSolver:  Solving for omega, Initial residual = 0.000557883, Final residual = 3.00101e-06, No Iterations 1
DICPCG:  Solving for psi, Initial residual = 7.06431e-06, Final residual = 8.87167e-07, No Iterations 53
time step continuity errors : sum local = 3.29376e-06, global = -2.43296e-20, cumulative = -1.17677e-18
ExecutionTime = 7.85 s  ClockTime = 8 s

Time = 0.91

Courant Number mean: 0.0650146 max: 0.142373
DICPCG:  Solving for p, Initial residual = 0.00110803, Final residual = 4.9917e-05, No Iterations 88
smoothSolver:  Solving for omega, Initial residual = 0.000557801, Final residual = 3.00434e-06, No Iterations 1
DICPCG:  Solving for psi, Initial residual = 6.99577e-06, Final residual = 9.51291e-07, No Iterations 52
time step continuity errors : sum local = 3.29377e-06, global = -4.72502e-21, cumulative = -1.1815e-18
ExecutionTime = 7.94 s  ClockTime = 8 s

Time = 0.92

Courant Number mean: 0.0650166 max: 0.142375
DICPCG:  Solving for p, Initial residual = 0.00110823, Final residual = 5.25525e-05, No Iterations 88
smoothSolver:  Solving for omega, Initial residual = 0.000557722, Final residual = 3.00768e-06, No Iterations 1
DICPCG:  Solving for psi, Initial residual = 7.049e-06, Final residual = 9.91659e-07, No Iterations 52
time step continuity errors : sum local = 3.29378e-06, global = -2.89171e-20, cumulative = -1.21041e-18
ExecutionTime = 8.02 s  ClockTime = 8 s

Time = 0.93

Courant Number mean: 0.0650186 max: 0.142376
DICPCG:  Solving for p, Initial residual = 0.00110664, Final residual = 5.45634e-05, No Iterations 88
smoothSolver:  Solving for omega, Initial residual = 0.000557646, Final residual = 3.01099e-06, No Iterations 1
DICPCG:  Solving for psi, Initial residual = 7.11151e-06, Final residual = 9.50608e-07, No Iterations 52
time step continuity errors : sum local = 3.29379e-06, global = -1.67695e-20, cumulative = -1.22718e-18
ExecutionTime = 8.1 s  ClockTime = 8 s

Time = 0.94

Courant Number mean: 0.0650206 max: 0.142378
DICPCG:  Solving for p, Initial residual = 0.00110646, Final residual = 5.12203e-05, No Iterations 91
smoothSolver:  Solving for omega, Initial residual = 0.000557572, Final residual = 3.01432e-06, No Iterations 1
DICPCG:  Solving for psi, Initial residual = 7.0555e-06, Final residual = 8.87824e-07, No Iterations 53
time step continuity errors : sum local = 3.2938e-06, global = -8.38476e-21, cumulative = -1.23557e-18
ExecutionTime = 8.18 s  ClockTime = 8 s

Time = 0.95

Courant Number mean: 0.0650226 max: 0.142379
DICPCG:  Solving for p, Initial residual = 0.00110427, Final residual = 5.48507e-05, No Iterations 91
smoothSolver:  Solving for omega, Initial residual = 0.0005575, Final residual = 3.01764e-06, No Iterations 1
DICPCG:  Solving for psi, Initial residual = 6.98693e-06, Final residual = 9.9514e-07, No Iterations 51
time step continuity errors : sum local = 3.29381e-06, global = -1.84018e-20, cumulative = -1.25397e-18
ExecutionTime = 8.27 s  ClockTime = 8 s

Time = 0.96

Courant Number mean: 0.0650247 max: 0.14238
DICPCG:  Solving for p, Initial residual = 0.00110692, Final residual = 5.35699e-05, No Iterations 94
smoothSolver:  Solving for omega, Initial residual = 0.000557427, Final residual = 3.02098e-06, No Iterations 1
DICPCG:  Solving for psi, Initial residual = 7.09196e-06, Final residual = 9.11589e-07, No Iterations 52
time step continuity errors : sum local = 3.29382e-06, global = -4.25767e-20, cumulative = -1.29655e-18
ExecutionTime = 8.35 s  ClockTime = 8 s

Time = 0.97

Courant Number mean: 0.0650267 max: 0.142381
DICPCG:  Solving for p, Initial residual = 0.00110668, Final residual = 5.48286e-05, No Iterations 99
smoothSolver:  Solving for omega, Initial residual = 0.000557356, Final residual = 3.02431e-06, No Iterations 1
DICPCG:  Solving for psi, Initial residual = 7.01534e-06, Final residual = 7.70345e-07, No Iterations 53
time step continuity errors : sum local = 3.29382e-06, global = -7.7834e-21, cumulative = -1.30433e-18
ExecutionTime = 8.44 s  ClockTime = 8 s

Time = 0.98

Courant Number mean: 0.0650288 max: 0.142381
DICPCG:  Solving for p, Initial residual = 0.00110653, Final residual = 5.20851e-05, No Iterations 247
smoothSolver:  Solving for omega, Initial residual = 0.000557287, Final residual = 3.02763e-06, No Iterations 1
DICPCG:  Solving for psi, Initial residual = 6.94112e-06, Final residual = 9.03638e-07, No Iterations 52
time step continuity errors : sum local = 3.29383e-06, global = -3.31782e-20, cumulative = -1.33751e-18
ExecutionTime = 8.58 s  ClockTime = 8 s

Time = 0.99

Courant Number mean: 0.0650308 max: 0.142381
DICPCG:  Solving for p, Initial residual = 0.00110304, Final residual = 5.11386e-05, No Iterations 85
smoothSolver:  Solving for omega, Initial residual = 0.000557218, Final residual = 3.03096e-06, No Iterations 1
DICPCG:  Solving for psi, Initial residual = 7.03241e-06, Final residual = 9.64071e-07, No Iterations 52
time step continuity errors : sum local = 3.29384e-06, global = 8.07549e-22, cumulative = -1.3367e-18
ExecutionTime = 8.66 s  ClockTime = 8 s

Time = 1

Courant Number mean: 0.0650329 max: 0.142381
DICPCG:  Solving for p, Initial residual = 0.00110295, Final residual = 5.35127e-05, No Iterations 85
smoothSolver:  Solving for omega, Initial residual = 0.00055715, Final residual = 3.03427e-06, No Iterations 1
DICPCG:  Solving for psi, Initial residual = 7.0651e-06, Final residual = 9.57428e-07, No Iterations 52
time step continuity errors : sum local = 3.29385e-06, global = -1.6907e-20, cumulative = -1.35361e-18
ExecutionTime = 8.81 s  ClockTime = 9 s

Time = 1.01

Courant Number mean: 0.065035 max: 0.14238
DICPCG:  Solving for p, Initial residual = 0.001106, Final residual = 5.40744e-05, No Iterations 85
smoothSolver:  Solving for omega, Initial residual = 0.000557084, Final residual = 3.03759e-06, No Iterations 1
DICPCG:  Solving for psi, Initial residual = 7.05231e-06, Final residual = 8.59102e-07, No Iterations 53
time step continuity errors : sum local = 3.29386e-06, global = 4.63911e-22, cumulative = -1.35314e-18
ExecutionTime = 8.89 s  ClockTime = 9 s

Time = 1.02

Courant Number mean: 0.0650371 max: 0.14238
DICPCG:  Solving for p, Initial residual = 0.0011053, Final residual = 5.46329e-05, No Iterations 86
smoothSolver:  Solving for omega, Initial residual = 0.000557017, Final residual = 3.0409e-06, No Iterations 1
DICPCG:  Solving for psi, Initial residual = 6.96654e-06, Final residual = 9.91849e-07, No Iterations 51
time step continuity errors : sum local = 3.29387e-06, global = -2.8625e-20, cumulative = -1.38177e-18
ExecutionTime = 8.96 s  ClockTime = 9 s

Time = 1.03

Courant Number mean: 0.0650392 max: 0.142379
DICPCG:  Solving for p, Initial residual = 0.00110465, Final residual = 5.46163e-05, No Iterations 87
smoothSolver:  Solving for omega, Initial residual = 0.000556953, Final residual = 3.04423e-06, No Iterations 1
DICPCG:  Solving for psi, Initial residual = 7.09929e-06, Final residual = 9.24463e-07, No Iterations 52
time step continuity errors : sum local = 3.29387e-06, global = -1.38142e-20, cumulative = -1.39558e-18
ExecutionTime = 9.05 s  ClockTime = 9 s

Time = 1.04

Courant Number mean: 0.0650413 max: 0.142379
DICPCG:  Solving for p, Initial residual = 0.00110403, Final residual = 5.16746e-05, No Iterations 88
smoothSolver:  Solving for omega, Initial residual = 0.000556889, Final residual = 3.04756e-06, No Iterations 1
DICPCG:  Solving for psi, Initial residual = 7.00209e-06, Final residual = 9.79959e-07, No Iterations 52
time step continuity errors : sum local = 3.29388e-06, global = -2.80408e-20, cumulative = -1.42362e-18
ExecutionTime = 9.13 s  ClockTime = 9 s

Time = 1.05

Courant Number mean: 0.0650434 max: 0.142378
DICPCG:  Solving for p, Initial residual = 0.00110534, Final residual = 5.372e-05, No Iterations 88
smoothSolver:  Solving for omega, Initial residual = 0.000556826, Final residual = 3.05089e-06, No Iterations 1
DICPCG:  Solving for psi, Initial residual = 7.04623e-06, Final residual = 9.34246e-07, No Iterations 52
time step continuity errors : sum local = 3.29389e-06, global = -1.8797e-20, cumulative = -1.44242e-18
ExecutionTime = 9.21 s  ClockTime = 9 s

Time = 1.06

Courant Number mean: 0.0650455 max: 0.142377
DICPCG:  Solving for p, Initial residual = 0.00110722, Final residual = 5.48198e-05, No Iterations 89
smoothSolver:  Solving for omega, Initial residual = 0.000556763, Final residual = 3.05422e-06, No Iterations 1
DICPCG:  Solving for psi, Initial residual = 7.04947e-06, Final residual = 9.85194e-07, No Iterations 51
time step continuity errors : sum local = 3.2939e-06, global = -9.93113e-21, cumulative = -1.45235e-18
ExecutionTime = 9.29 s  ClockTime = 9 s

Time = 1.07

Courant Number mean: 0.0650476 max: 0.142376
DICPCG:  Solving for p, Initial residual = 0.00110672, Final residual = 5.29672e-05, No Iterations 91
smoothSolver:  Solving for omega, Initial residual = 0.000556698, Final residual = 3.05756e-06, No Iterations 1
DICPCG:  Solving for psi, Initial residual = 7.06577e-06, Final residual = 9.8272e-07, No Iterations 52
time step continuity errors : sum local = 3.29391e-06, global = -6.01366e-22, cumulative = -1.45295e-18
ExecutionTime = 9.38 s  ClockTime = 9 s

Time = 1.08

Courant Number mean: 0.0650497 max: 0.142374
DICPCG:  Solving for p, Initial residual = 0.00110454, Final residual = 5.28655e-05, No Iterations 94
smoothSolver:  Solving for omega, Initial residual = 0.000556635, Final residual = 3.0609e-06, No Iterations 1
DICPCG:  Solving for psi, Initial residual = 7.03349e-06, Final residual = 9.93979e-07, No Iterations 51
time step continuity errors : sum local = 3.29393e-06, global = -2.85735e-20, cumulative = -1.48153e-18
ExecutionTime = 9.46 s  ClockTime = 9 s

Time = 1.09

Courant Number mean: 0.0650518 max: 0.142372
DICPCG:  Solving for p, Initial residual = 0.00109818, Final residual = 5.37673e-05, No Iterations 102
smoothSolver:  Solving for omega, Initial residual = 0.000556572, Final residual = 3.06423e-06, No Iterations 1
DICPCG:  Solving for psi, Initial residual = 7.06355e-06, Final residual = 9.80654e-07, No Iterations 51
time step continuity errors : sum local = 3.29394e-06, global = -3.10305e-20, cumulative = -1.51256e-18
ExecutionTime = 9.55 s  ClockTime = 9 s

Time = 1.1

Courant Number mean: 0.0650539 max: 0.14237
DICPCG:  Solving for p, Initial residual = 0.00109987, Final residual = 5.22257e-05, No Iterations 247
smoothSolver:  Solving for omega, Initial residual = 0.000556509, Final residual = 3.06756e-06, No Iterations 1
DICPCG:  Solving for psi, Initial residual = 7.08881e-06, Final residual = 8.75968e-07, No Iterations 53
time step continuity errors : sum local = 3.29396e-06, global = -2.06183e-20, cumulative = -1.53317e-18
ExecutionTime = 9.69 s  ClockTime = 10 s

Time = 1.11

Courant Number mean: 0.065056 max: 0.142368
DICPCG:  Solving for p, Initial residual = 0.00110355, Final residual = 5.07074e-05, No Iterations 85
smoothSolver:  Solving for omega, Initial residual = 0.000556445, Final residual = 3.0709e-06, No Iterations 1
DICPCG:  Solving for psi, Initial residual = 6.97812e-06, Final residual = 9.31299e-07, No Iterations 52
time step continuity errors : sum local = 3.29397e-06, global = -1.89173e-20, cumulative = -1.55209e-18
ExecutionTime = 9.77 s  ClockTime = 10 s

Time = 1.12

Courant Number mean: 0.0650581 max: 0.142365
DICPCG:  Solving for p, Initial residual = 0.00110405, Final residual = 5.35381e-05, No Iterations 85
smoothSolver:  Solving for omega, Initial residual = 0.000556381, Final residual = 3.07423e-06, No Iterations 1
DICPCG:  Solving for psi, Initial residual = 7.00406e-06, Final residual = 9.8527e-07, No Iterations 52
time step continuity errors : sum local = 3.29398e-06, global = -2.0498e-20, cumulative = -1.57259e-18
ExecutionTime = 9.85 s  ClockTime = 10 s

Time = 1.13

Courant Number mean: 0.0650603 max: 0.142363
DICPCG:  Solving for p, Initial residual = 0.00110459, Final residual = 5.45248e-05, No Iterations 85
smoothSolver:  Solving for omega, Initial residual = 0.000556317, Final residual = 3.07756e-06, No Iterations 1
DICPCG:  Solving for psi, Initial residual = 7.06257e-06, Final residual = 9.20272e-07, No Iterations 52
time step continuity errors : sum local = 3.29399e-06, global = -1.74912e-20, cumulative = -1.59008e-18
ExecutionTime = 9.94 s  ClockTime = 10 s

Time = 1.14

Courant Number mean: 0.0650624 max: 0.142359
DICPCG:  Solving for p, Initial residual = 0.00110382, Final residual = 5.49764e-05, No Iterations 86
smoothSolver:  Solving for omega, Initial residual = 0.000556251, Final residual = 3.08089e-06, No Iterations 1
DICPCG:  Solving for psi, Initial residual = 7.00237e-06, Final residual = 8.89464e-07, No Iterations 53
time step continuity errors : sum local = 3.29401e-06, global = -6.64939e-21, cumulative = -1.59673e-18
ExecutionTime = 10.02 s  ClockTime = 10 s

Time = 1.15

Courant Number mean: 0.0650645 max: 0.142356
DICPCG:  Solving for p, Initial residual = 0.00110351, Final residual = 5.46777e-05, No Iterations 87
smoothSolver:  Solving for omega, Initial residual = 0.000556185, Final residual = 3.08421e-06, No Iterations 1
DICPCG:  Solving for psi, Initial residual = 6.95355e-06, Final residual = 9.35204e-07, No Iterations 52
time step continuity errors : sum local = 3.29401e-06, global = 2.40546e-21, cumulative = -1.59433e-18
ExecutionTime = 10.1 s  ClockTime = 10 s

Time = 1.16

Courant Number mean: 0.0650666 max: 0.142352
DICPCG:  Solving for p, Initial residual = 0.00110487, Final residual = 5.12507e-05, No Iterations 88
smoothSolver:  Solving for omega, Initial residual = 0.00055612, Final residual = 3.08754e-06, No Iterations 1
DICPCG:  Solving for psi, Initial residual = 7.01095e-06, Final residual = 9.77913e-07, No Iterations 52
time step continuity errors : sum local = 3.29403e-06, global = -2.73364e-20, cumulative = -1.62166e-18
ExecutionTime = 10.18 s  ClockTime = 10 s

Time = 1.17

Courant Number mean: 0.0650687 max: 0.142354
DICPCG:  Solving for p, Initial residual = 0.00110687, Final residual = 5.36532e-05, No Iterations 88
smoothSolver:  Solving for omega, Initial residual = 0.00055606, Final residual = 3.09085e-06, No Iterations 1
DICPCG:  Solving for psi, Initial residual = 7.06486e-06, Final residual = 9.56055e-07, No Iterations 52
time step continuity errors : sum local = 3.29404e-06, global = -1.55496e-20, cumulative = -1.63721e-18
ExecutionTime = 10.27 s  ClockTime = 10 s

Time = 1.18

Courant Number mean: 0.0650708 max: 0.142356
DICPCG:  Solving for p, Initial residual = 0.00110706, Final residual = 5.48997e-05, No Iterations 89
smoothSolver:  Solving for omega, Initial residual = 0.000556004, Final residual = 3.09416e-06, No Iterations 1
DICPCG:  Solving for psi, Initial residual = 7.02866e-06, Final residual = 8.96979e-07, No Iterations 53
time step continuity errors : sum local = 3.29405e-06, global = 1.02748e-20, cumulative = -1.62694e-18
ExecutionTime = 10.35 s  ClockTime = 10 s

Time = 1.19

Courant Number mean: 0.065073 max: 0.142357
DICPCG:  Solving for p, Initial residual = 0.001103, Final residual = 5.29183e-05, No Iterations 91
smoothSolver:  Solving for omega, Initial residual = 0.000555949, Final residual = 3.09747e-06, No Iterations 1
DICPCG:  Solving for psi, Initial residual = 6.97295e-06, Final residual = 9.18302e-07, No Iterations 52
time step continuity errors : sum local = 3.29406e-06, global = -2.5034e-20, cumulative = -1.65197e-18
ExecutionTime = 10.43 s  ClockTime = 10 s

Time = 1.2

Courant Number mean: 0.0650751 max: 0.142358
DICPCG:  Solving for p, Initial residual = 0.00110297, Final residual = 5.39674e-05, No Iterations 94
smoothSolver:  Solving for omega, Initial residual = 0.000555899, Final residual = 3.10077e-06, No Iterations 1
DICPCG:  Solving for psi, Initial residual = 6.99265e-06, Final residual = 9.89451e-07, No Iterations 52
time step continuity errors : sum local = 3.29408e-06, global = 4.43293e-21, cumulative = -1.64754e-18
ExecutionTime = 10.52 s  ClockTime = 10 s

Time = 1.21

Courant Number mean: 0.0650773 max: 0.142359
DICPCG:  Solving for p, Initial residual = 0.00110318, Final residual = 5.42603e-05, No Iterations 102
smoothSolver:  Solving for omega, Initial residual = 0.000555851, Final residual = 3.10407e-06, No Iterations 1
DICPCG:  Solving for psi, Initial residual = 7.04612e-06, Final residual = 9.57822e-07, No Iterations 52
time step continuity errors : sum local = 3.29409e-06, global = -3.1649e-20, cumulative = -1.67919e-18
ExecutionTime = 10.61 s  ClockTime = 10 s

Time = 1.22

Courant Number mean: 0.0650796 max: 0.14236
DICPCG:  Solving for p, Initial residual = 0.00110703, Final residual = 5.24235e-05, No Iterations 247
smoothSolver:  Solving for omega, Initial residual = 0.000555802, Final residual = 3.10736e-06, No Iterations 1
DICPCG:  Solving for psi, Initial residual = 7.01327e-06, Final residual = 9.01505e-07, No Iterations 53
time step continuity errors : sum local = 3.2941e-06, global = -1.40032e-20, cumulative = -1.69319e-18
ExecutionTime = 10.75 s  ClockTime = 11 s

Time = 1.23

Courant Number mean: 0.0650818 max: 0.14236
DICPCG:  Solving for p, Initial residual = 0.00111001, Final residual = 5.14725e-05, No Iterations 85
smoothSolver:  Solving for omega, Initial residual = 0.000555753, Final residual = 3.11065e-06, No Iterations 1
DICPCG:  Solving for psi, Initial residual = 6.96465e-06, Final residual = 9.96888e-07, No Iterations 51
time step continuity errors : sum local = 3.29411e-06, global = -9.27822e-21, cumulative = -1.70247e-18
ExecutionTime = 10.83 s  ClockTime = 11 s

Time = 1.24

Courant Number mean: 0.065084 max: 0.14236
DICPCG:  Solving for p, Initial residual = 0.00110909, Final residual = 5.42351e-05, No Iterations 85
smoothSolver:  Solving for omega, Initial residual = 0.000555706, Final residual = 3.11395e-06, No Iterations 1
DICPCG:  Solving for psi, Initial residual = 7.04785e-06, Final residual = 9.09384e-07, No Iterations 52
time step continuity errors : sum local = 3.29412e-06, global = -2.49309e-20, cumulative = -1.7274e-18
ExecutionTime = 10.91 s  ClockTime = 11 s

Time = 1.25

Courant Number mean: 0.0650863 max: 0.14236
DICPCG:  Solving for p, Initial residual = 0.00110836, Final residual = 5.53311e-05, No Iterations 85
smoothSolver:  Solving for omega, Initial residual = 0.000555658, Final residual = 3.11724e-06, No Iterations 1
DICPCG:  Solving for psi, Initial residual = 6.95843e-06, Final residual = 9.90903e-07, No Iterations 52
time step continuity errors : sum local = 3.29413e-06, global = -9.50159e-21, cumulative = -1.7369e-18
ExecutionTime = 10.99 s  ClockTime = 11 s

Time = 1.26

Courant Number mean: 0.0650886 max: 0.14236
DICPCG:  Solving for p, Initial residual = 0.00110897, Final residual = 5.50872e-05, No Iterations 86
smoothSolver:  Solving for omega, Initial residual = 0.00055561, Final residual = 3.12053e-06, No Iterations 1
DICPCG:  Solving for psi, Initial residual = 7.02256e-06, Final residual = 9.19078e-07, No Iterations 52
time step continuity errors : sum local = 3.29414e-06, global = -1.92437e-20, cumulative = -1.75614e-18
ExecutionTime = 11.07 s  ClockTime = 11 s

Time = 1.27

Courant Number mean: 0.0650909 max: 0.142359
DICPCG:  Solving for p, Initial residual = 0.0011063, Final residual = 5.48984e-05, No Iterations 87
smoothSolver:  Solving for omega, Initial residual = 0.000555564, Final residual = 3.12383e-06, No Iterations 1
DICPCG:  Solving for psi, Initial residual = 7.00131e-06, Final residual = 9.86986e-07, No Iterations 52
time step continuity errors : sum local = 3.29416e-06, global = -3.14944e-20, cumulative = -1.78764e-18
ExecutionTime = 11.16 s  ClockTime = 11 s

Time = 1.28

Courant Number mean: 0.0650932 max: 0.142358
DICPCG:  Solving for p, Initial residual = 0.0011081, Final residual = 5.16886e-05, No Iterations 88
smoothSolver:  Solving for omega, Initial residual = 0.000555517, Final residual = 3.12714e-06, No Iterations 1
DICPCG:  Solving for psi, Initial residual = 7.02476e-06, Final residual = 9.60053e-07, No Iterations 52
time step continuity errors : sum local = 3.29416e-06, global = -2.62883e-21, cumulative = -1.79027e-18
ExecutionTime = 11.24 s  ClockTime = 11 s

Time = 1.29

Courant Number mean: 0.0650955 max: 0.142357
DICPCG:  Solving for p, Initial residual = 0.00110751, Final residual = 5.4477e-05, No Iterations 88
smoothSolver:  Solving for omega, Initial residual = 0.000555468, Final residual = 3.13046e-06, No Iterations 1
DICPCG:  Solving for psi, Initial residual = 7.03278e-06, Final residual = 9.83416e-07, No Iterations 51
time step continuity errors : sum local = 3.29418e-06, global = -4.07211e-21, cumulative = -1.79434e-18
ExecutionTime = 11.32 s  ClockTime = 11 s

Time = 1.3

Courant Number mean: 0.0650978 max: 0.142356
DICPCG:  Solving for p, Initial residual = 0.00110894, Final residual = 5.49834e-05, No Iterations 89
smoothSolver:  Solving for omega, Initial residual = 0.00055542, Final residual = 3.13379e-06, No Iterations 1
DICPCG:  Solving for psi, Initial residual = 7.04052e-06, Final residual = 9.85025e-07, No Iterations 51
time step continuity errors : sum local = 3.29419e-06, global = -9.1064e-21, cumulative = -1.80345e-18
ExecutionTime = 11.4 s  ClockTime = 11 s

Time = 1.31

Courant Number mean: 0.0651001 max: 0.142354
DICPCG:  Solving for p, Initial residual = 0.00110373, Final residual = 5.33089e-05, No Iterations 91
smoothSolver:  Solving for omega, Initial residual = 0.000555374, Final residual = 3.13711e-06, No Iterations 1
DICPCG:  Solving for psi, Initial residual = 7.02886e-06, Final residual = 9.89201e-07, No Iterations 51
time step continuity errors : sum local = 3.2942e-06, global = -4.38138e-21, cumulative = -1.80783e-18
ExecutionTime = 11.49 s  ClockTime = 11 s

Time = 1.32

Courant Number mean: 0.0651025 max: 0.142352
DICPCG:  Solving for p, Initial residual = 0.00110097, Final residual = 5.29107e-05, No Iterations 94
smoothSolver:  Solving for omega, Initial residual = 0.000555329, Final residual = 3.14043e-06, No Iterations 1
DICPCG:  Solving for psi, Initial residual = 7.03761e-06, Final residual = 9.88228e-07, No Iterations 52
time step continuity errors : sum local = 3.29421e-06, global = -1.31613e-20, cumulative = -1.82099e-18
ExecutionTime = 11.57 s  ClockTime = 11 s

Time = 1.33

Courant Number mean: 0.0651048 max: 0.14235
DICPCG:  Solving for p, Initial residual = 0.00110021, Final residual = 5.38897e-05, No Iterations 102
smoothSolver:  Solving for omega, Initial residual = 0.000555287, Final residual = 3.14376e-06, No Iterations 1
DICPCG:  Solving for psi, Initial residual = 7.01271e-06, Final residual = 8.44565e-07, No Iterations 53
time step continuity errors : sum local = 3.29422e-06, global = -9.74213e-21, cumulative = -1.83073e-18
ExecutionTime = 11.66 s  ClockTime = 11 s

Time = 1.34

Courant Number mean: 0.0651071 max: 0.142348
DICPCG:  Solving for p, Initial residual = 0.00110449, Final residual = 5.52112e-05, No Iterations 246
smoothSolver:  Solving for omega, Initial residual = 0.000555244, Final residual = 3.14708e-06, No Iterations 1
DICPCG:  Solving for psi, Initial residual = 6.92792e-06, Final residual = 9.06483e-07, No Iterations 52
time step continuity errors : sum local = 3.29423e-06, global = -6.87276e-23, cumulative = -1.8308e-18
ExecutionTime = 11.8 s  ClockTime = 12 s

Time = 1.35

Courant Number mean: 0.0651094 max: 0.142345
DICPCG:  Solving for p, Initial residual = 0.00110443, Final residual = 5.0989e-05, No Iterations 85
smoothSolver:  Solving for omega, Initial residual = 0.000555202, Final residual = 3.15041e-06, No Iterations 1
DICPCG:  Solving for psi, Initial residual = 6.97083e-06, Final residual = 9.57812e-07, No Iterations 52
time step continuity errors : sum local = 3.29424e-06, global = -1.95014e-20, cumulative = -1.8503e-18
ExecutionTime = 11.88 s  ClockTime = 12 s

Time = 1.36

Courant Number mean: 0.0651117 max: 0.142342
DICPCG:  Solving for p, Initial residual = 0.00110205, Final residual = 5.29435e-05, No Iterations 85
smoothSolver:  Solving for omega, Initial residual = 0.000555159, Final residual = 3.15373e-06, No Iterations 1
DICPCG:  Solving for psi, Initial residual = 6.99833e-06, Final residual = 9.5952e-07, No Iterations 52
time step continuity errors : sum local = 3.29425e-06, global = -2.66835e-20, cumulative = -1.87698e-18
ExecutionTime = 11.97 s  ClockTime = 12 s

Time = 1.37

Courant Number mean: 0.0651141 max: 0.142339
DICPCG:  Solving for p, Initial residual = 0.00110414, Final residual = 5.38163e-05, No Iterations 85
smoothSolver:  Solving for omega, Initial residual = 0.000555114, Final residual = 3.15705e-06, No Iterations 1
DICPCG:  Solving for psi, Initial residual = 6.99981e-06, Final residual = 8.69612e-07, No Iterations 53
time step continuity errors : sum local = 3.29425e-06, global = -2.05839e-20, cumulative = -1.89757e-18
ExecutionTime = 12.06 s  ClockTime = 12 s

Time = 1.38

Courant Number mean: 0.0651164 max: 0.142335
DICPCG:  Solving for p, Initial residual = 0.00110477, Final residual = 5.33719e-05, No Iterations 86
smoothSolver:  Solving for omega, Initial residual = 0.000555068, Final residual = 3.16037e-06, No Iterations 1
DICPCG:  Solving for psi, Initial residual = 6.93127e-06, Final residual = 9.30921e-07, No Iterations 52
time step continuity errors : sum local = 3.29426e-06, global = -3.37968e-20, cumulative = -1.93137e-18
ExecutionTime = 12.15 s  ClockTime = 12 s

Time = 1.39

Courant Number mean: 0.0651187 max: 0.142332
DICPCG:  Solving for p, Initial residual = 0.00110447, Final residual = 5.36235e-05, No Iterations 87
smoothSolver:  Solving for omega, Initial residual = 0.000555021, Final residual = 3.16369e-06, No Iterations 1
DICPCG:  Solving for psi, Initial residual = 6.97843e-06, Final residual = 9.97599e-07, No Iterations 52
time step continuity errors : sum local = 3.29427e-06, global = -2.33158e-20, cumulative = -1.95468e-18
ExecutionTime = 12.23 s  ClockTime = 12 s

Time = 1.4

Courant Number mean: 0.0651211 max: 0.142328
DICPCG:  Solving for p, Initial residual = 0.00110616, Final residual = 5.07454e-05, No Iterations 88
smoothSolver:  Solving for omega, Initial residual = 0.000554974, Final residual = 3.16699e-06, No Iterations 1
DICPCG:  Solving for psi, Initial residual = 7.01914e-06, Final residual = 9.38818e-07, No Iterations 52
time step continuity errors : sum local = 3.29428e-06, global = -3.18552e-20, cumulative = -1.98654e-18
ExecutionTime = 12.31 s  ClockTime = 12 s

Time = 1.41

Courant Number mean: 0.0651234 max: 0.142324
DICPCG:  Solving for p, Initial residual = 0.00110534, Final residual = 5.32175e-05, No Iterations 88
smoothSolver:  Solving for omega, Initial residual = 0.000554929, Final residual = 3.1703e-06, No Iterations 1
DICPCG:  Solving for psi, Initial residual = 6.98538e-06, Final residual = 8.77258e-07, No Iterations 53
time step continuity errors : sum local = 3.29429e-06, global = 1.1151e-20, cumulative = -1.97539e-18
ExecutionTime = 12.4 s  ClockTime = 12 s

Time = 1.42

Courant Number mean: 0.0651257 max: 0.142319
DICPCG:  Solving for p, Initial residual = 0.0011048, Final residual = 5.39908e-05, No Iterations 89
smoothSolver:  Solving for omega, Initial residual = 0.00055489, Final residual = 3.1736e-06, No Iterations 1
DICPCG:  Solving for psi, Initial residual = 6.92408e-06, Final residual = 9.35959e-07, No Iterations 52
time step continuity errors : sum local = 3.2943e-06, global = 2.7491e-22, cumulative = -1.97511e-18
ExecutionTime = 12.5 s  ClockTime = 12 s

Time = 1.43

Courant Number mean: 0.065128 max: 0.142314
DICPCG:  Solving for p, Initial residual = 0.00110376, Final residual = 5.22126e-05, No Iterations 91
smoothSolver:  Solving for omega, Initial residual = 0.000554851, Final residual = 3.17691e-06, No Iterations 1
DICPCG:  Solving for psi, Initial residual = 6.9746e-06, Final residual = 9.71425e-07, No Iterations 52
time step continuity errors : sum local = 3.29431e-06, global = -7.64594e-21, cumulative = -1.98276e-18
ExecutionTime = 12.59 s  ClockTime = 12 s

Time = 1.44

Courant Number mean: 0.0651304 max: 0.142309
DICPCG:  Solving for p, Initial residual = 0.0010977, Final residual = 5.24736e-05, No Iterations 94
smoothSolver:  Solving for omega, Initial residual = 0.000554812, Final residual = 3.1802e-06, No Iterations 1
DICPCG:  Solving for psi, Initial residual = 7.02289e-06, Final residual = 9.62447e-07, No Iterations 52
time step continuity errors : sum local = 3.29433e-06, global = -2.87625e-20, cumulative = -2.01152e-18
ExecutionTime = 12.67 s  ClockTime = 12 s

Time = 1.45

Courant Number mean: 0.0651327 max: 0.142304
DICPCG:  Solving for p, Initial residual = 0.00109581, Final residual = 5.37945e-05, No Iterations 102
smoothSolver:  Solving for omega, Initial residual = 0.000554774, Final residual = 3.18349e-06, No Iterations 1
DICPCG:  Solving for psi, Initial residual = 6.99968e-06, Final residual = 9.07977e-07, No Iterations 53
time step continuity errors : sum local = 3.29435e-06, global = -2.12368e-20, cumulative = -2.03276e-18
ExecutionTime = 12.75 s  ClockTime = 13 s

Time = 1.46

Courant Number mean: 0.065135 max: 0.142299
DICPCG:  Solving for p, Initial residual = 0.00110077, Final residual = 5.41996e-05, No Iterations 246
smoothSolver:  Solving for omega, Initial residual = 0.000554741, Final residual = 3.18676e-06, No Iterations 1
DICPCG:  Solving for psi, Initial residual = 6.9599e-06, Final residual = 9.21849e-07, No Iterations 52
time step continuity errors : sum local = 3.29436e-06, global = -4.5532e-21, cumulative = -2.03731e-18
ExecutionTime = 12.9 s  ClockTime = 13 s

Time = 1.47

Courant Number mean: 0.0651373 max: 0.142293
DICPCG:  Solving for p, Initial residual = 0.00110157, Final residual = 5.02464e-05, No Iterations 85
smoothSolver:  Solving for omega, Initial residual = 0.000554708, Final residual = 3.19004e-06, No Iterations 1
DICPCG:  Solving for psi, Initial residual = 6.98361e-06, Final residual = 9.78673e-07, No Iterations 52
time step continuity errors : sum local = 3.29438e-06, global = -2.49137e-21, cumulative = -2.0398e-18
ExecutionTime = 13 s  ClockTime = 13 s

Time = 1.48

Courant Number mean: 0.0651397 max: 0.142287
DICPCG:  Solving for p, Initial residual = 0.00110058, Final residual = 5.26974e-05, No Iterations 85
smoothSolver:  Solving for omega, Initial residual = 0.000554678, Final residual = 3.19331e-06, No Iterations 1
DICPCG:  Solving for psi, Initial residual = 7.02708e-06, Final residual = 9.7199e-07, No Iterations 52
time step continuity errors : sum local = 3.2944e-06, global = -2.2766e-20, cumulative = -2.06257e-18
ExecutionTime = 13.11 s  ClockTime = 13 s

Time = 1.49

Courant Number mean: 0.065142 max: 0.142288
DICPCG:  Solving for p, Initial residual = 0.00110092, Final residual = 5.30928e-05, No Iterations 85
smoothSolver:  Solving for omega, Initial residual = 0.000554649, Final residual = 3.19657e-06, No Iterations 1
DICPCG:  Solving for psi, Initial residual = 7.01395e-06, Final residual = 9.18358e-07, No Iterations 53
time step continuity errors : sum local = 3.29441e-06, global = -2.43639e-20, cumulative = -2.08693e-18
ExecutionTime = 13.2 s  ClockTime = 13 s

Time = 1.5

Courant Number mean: 0.0651443 max: 0.142288
DICPCG:  Solving for p, Initial residual = 0.00110103, Final residual = 5.36469e-05, No Iterations 86
smoothSolver:  Solving for omega, Initial residual = 0.00055462, Final residual = 3.19982e-06, No Iterations 1
DICPCG:  Solving for psi, Initial residual = 6.9472e-06, Final residual = 9.30242e-07, No Iterations 52
time step continuity errors : sum local = 3.29443e-06, global = -6.3573e-21, cumulative = -2.09329e-18
ExecutionTime = 13.28 s  ClockTime = 13 s

Time = 1.51

Courant Number mean: 0.0651466 max: 0.142287
DICPCG:  Solving for p, Initial residual = 0.00110025, Final residual = 5.46663e-05, No Iterations 86
[...]
DICPCG:  Solving for p, Initial residual = 0.000553063, Final residual = 2.76183e-05, No Iterations 80
smoothSolver:  Solving for omega, Initial residual = 0.000358747, Final residual = 2.11539e-06, No Iterations 1
DICPCG:  Solving for psi, Initial residual = 4.29739e-06, Final residual = 9.85144e-07, No Iterations 42
time step continuity errors : sum local = 3.28674e-06, global = 3.88311e-21, cumulative = -2.54802e-17
ExecutionTime = 213.29 s  ClockTime = 216 s

Time = 19.64

Courant Number mean: 0.0639129 max: 0.12539
DICPCG:  Solving for p, Initial residual = 0.000553912, Final residual = 2.67574e-05, No Iterations 81
smoothSolver:  Solving for omega, Initial residual = 0.000358539, Final residual = 2.11415e-06, No Iterations 1
DICPCG:  Solving for psi, Initial residual = 4.39655e-06, Final residual = 9.07616e-07, No Iterations 42
time step continuity errors : sum local = 3.28676e-06, global = -1.02662e-20, cumulative = -2.54905e-17
ExecutionTime = 213.37 s  ClockTime = 216 s

Time = 19.65

Courant Number mean: 0.0639121 max: 0.125408
DICPCG:  Solving for p, Initial residual = 0.000552961, Final residual = 2.71e-05, No Iterations 82
smoothSolver:  Solving for omega, Initial residual = 0.000358333, Final residual = 2.11293e-06, No Iterations 1
DICPCG:  Solving for psi, Initial residual = 4.32097e-06, Final residual = 9.7658e-07, No Iterations 41
time step continuity errors : sum local = 3.28678e-06, global = -7.31949e-21, cumulative = -2.54978e-17
ExecutionTime = 213.46 s  ClockTime = 217 s

Time = 19.66

Courant Number mean: 0.0639113 max: 0.125425
DICPCG:  Solving for p, Initial residual = 0.000552651, Final residual = 2.71678e-05, No Iterations 83
smoothSolver:  Solving for omega, Initial residual = 0.000358127, Final residual = 2.11169e-06, No Iterations 1
DICPCG:  Solving for psi, Initial residual = 4.34267e-06, Final residual = 9.72827e-07, No Iterations 41
time step continuity errors : sum local = 3.28677e-06, global = -8.92599e-21, cumulative = -2.55067e-17
ExecutionTime = 213.54 s  ClockTime = 217 s

Time = 19.67

Courant Number mean: 0.0639104 max: 0.125443
DICPCG:  Solving for p, Initial residual = 0.000552178, Final residual = 2.66899e-05, No Iterations 87
smoothSolver:  Solving for omega, Initial residual = 0.000357921, Final residual = 2.11045e-06, No Iterations 1
DICPCG:  Solving for psi, Initial residual = 4.38295e-06, Final residual = 9.91212e-07, No Iterations 41
time step continuity errors : sum local = 3.2868e-06, global = -1.4639e-20, cumulative = -2.55214e-17
ExecutionTime = 213.62 s  ClockTime = 217 s

Time = 19.68

Courant Number mean: 0.0639096 max: 0.12546
DICPCG:  Solving for p, Initial residual = 0.000551375, Final residual = 2.59155e-05, No Iterations 247
smoothSolver:  Solving for omega, Initial residual = 0.000357715, Final residual = 2.1092e-06, No Iterations 1
DICPCG:  Solving for psi, Initial residual = 4.3647e-06, Final residual = 9.99594e-07, No Iterations 41
time step continuity errors : sum local = 3.2868e-06, global = -1.96131e-20, cumulative = -2.5541e-17
ExecutionTime = 213.78 s  ClockTime = 217 s

Time = 19.69

Courant Number mean: 0.0639088 max: 0.125478
DICPCG:  Solving for p, Initial residual = 0.000550337, Final residual = 2.59132e-05, No Iterations 68
smoothSolver:  Solving for omega, Initial residual = 0.00035751, Final residual = 2.10794e-06, No Iterations 1
DICPCG:  Solving for psi, Initial residual = 4.40581e-06, Final residual = 9.39084e-07, No Iterations 43
time step continuity errors : sum local = 3.28683e-06, global = -2.95185e-20, cumulative = -2.55705e-17
ExecutionTime = 213.86 s  ClockTime = 217 s

Time = 19.7

Courant Number mean: 0.063908 max: 0.125495
DICPCG:  Solving for p, Initial residual = 0.000550579, Final residual = 2.69221e-05, No Iterations 79
smoothSolver:  Solving for omega, Initial residual = 0.000357301, Final residual = 2.10667e-06, No Iterations 1
DICPCG:  Solving for psi, Initial residual = 4.33739e-06, Final residual = 9.43444e-07, No Iterations 42
time step continuity errors : sum local = 3.28686e-06, global = -1.0438e-20, cumulative = -2.55809e-17
ExecutionTime = 213.93 s  ClockTime = 217 s

Time = 19.71

Courant Number mean: 0.0639071 max: 0.125512
DICPCG:  Solving for p, Initial residual = 0.000551441, Final residual = 2.73914e-05, No Iterations 80
smoothSolver:  Solving for omega, Initial residual = 0.000357091, Final residual = 2.10539e-06, No Iterations 1
DICPCG:  Solving for psi, Initial residual = 4.30469e-06, Final residual = 8.39569e-07, No Iterations 43
time step continuity errors : sum local = 3.28686e-06, global = -1.41063e-20, cumulative = -2.5595e-17
ExecutionTime = 214.02 s  ClockTime = 217 s

Time = 19.72

Courant Number mean: 0.0639063 max: 0.125529
DICPCG:  Solving for p, Initial residual = 0.000551829, Final residual = 2.59453e-05, No Iterations 81
smoothSolver:  Solving for omega, Initial residual = 0.00035688, Final residual = 2.10419e-06, No Iterations 1
DICPCG:  Solving for psi, Initial residual = 4.24663e-06, Final residual = 9.95802e-07, No Iterations 41
time step continuity errors : sum local = 3.28688e-06, global = -3.52229e-22, cumulative = -2.55954e-17
ExecutionTime = 214.09 s  ClockTime = 217 s

Time = 19.73

Courant Number mean: 0.0639054 max: 0.125546
DICPCG:  Solving for p, Initial residual = 0.000550311, Final residual = 2.66366e-05, No Iterations 82
smoothSolver:  Solving for omega, Initial residual = 0.000356671, Final residual = 2.10301e-06, No Iterations 1
DICPCG:  Solving for psi, Initial residual = 4.34982e-06, Final residual = 8.48952e-07, No Iterations 42
time step continuity errors : sum local = 3.28688e-06, global = -9.08922e-21, cumulative = -2.56045e-17
ExecutionTime = 214.18 s  ClockTime = 217 s

Time = 19.74

Courant Number mean: 0.0639046 max: 0.125563
DICPCG:  Solving for p, Initial residual = 0.00054985, Final residual = 2.67153e-05, No Iterations 83
smoothSolver:  Solving for omega, Initial residual = 0.00035646, Final residual = 2.10182e-06, No Iterations 1
DICPCG:  Solving for psi, Initial residual = 4.27841e-06, Final residual = 8.40828e-07, No Iterations 43
time step continuity errors : sum local = 3.2869e-06, global = -9.45863e-21, cumulative = -2.56139e-17
ExecutionTime = 214.26 s  ClockTime = 217 s

Time = 19.75

Courant Number mean: 0.0639038 max: 0.12558
DICPCG:  Solving for p, Initial residual = 0.000549045, Final residual = 2.72476e-05, No Iterations 85
smoothSolver:  Solving for omega, Initial residual = 0.000356251, Final residual = 2.1006e-06, No Iterations 1
DICPCG:  Solving for psi, Initial residual = 4.26637e-06, Final residual = 8.7402e-07, No Iterations 42
time step continuity errors : sum local = 3.28692e-06, global = -1.38314e-20, cumulative = -2.56278e-17
ExecutionTime = 214.35 s  ClockTime = 217 s

Time = 19.76

Courant Number mean: 0.0639029 max: 0.125596
DICPCG:  Solving for p, Initial residual = 0.000548636, Final residual = 2.64902e-05, No Iterations 247
smoothSolver:  Solving for omega, Initial residual = 0.000356038, Final residual = 2.09937e-06, No Iterations 1
DICPCG:  Solving for psi, Initial residual = 4.27024e-06, Final residual = 9.33586e-07, No Iterations 42
time step continuity errors : sum local = 3.28693e-06, global = -1.16579e-20, cumulative = -2.56394e-17
ExecutionTime = 214.5 s  ClockTime = 218 s

Time = 19.77

Courant Number mean: 0.0639021 max: 0.125613
DICPCG:  Solving for p, Initial residual = 0.000547814, Final residual = 2.65527e-05, No Iterations 67
smoothSolver:  Solving for omega, Initial residual = 0.000355824, Final residual = 2.09813e-06, No Iterations 1
DICPCG:  Solving for psi, Initial residual = 4.32353e-06, Final residual = 8.77319e-07, No Iterations 42
time step continuity errors : sum local = 3.28694e-06, global = 3.80579e-21, cumulative = -2.56356e-17
ExecutionTime = 214.58 s  ClockTime = 218 s

Time = 19.78

Courant Number mean: 0.0639012 max: 0.125629
DICPCG:  Solving for p, Initial residual = 0.000546765, Final residual = 2.72803e-05, No Iterations 78
smoothSolver:  Solving for omega, Initial residual = 0.00035561, Final residual = 2.0969e-06, No Iterations 1
DICPCG:  Solving for psi, Initial residual = 4.25558e-06, Final residual = 9.58135e-07, No Iterations 42
time step continuity errors : sum local = 3.28696e-06, global = -1.67438e-20, cumulative = -2.56524e-17
ExecutionTime = 214.66 s  ClockTime = 218 s

Time = 19.79

Courant Number mean: 0.0639004 max: 0.125645
DICPCG:  Solving for p, Initial residual = 0.000547082, Final residual = 2.60338e-05, No Iterations 80
smoothSolver:  Solving for omega, Initial residual = 0.000355397, Final residual = 2.09565e-06, No Iterations 1
DICPCG:  Solving for psi, Initial residual = 4.35205e-06, Final residual = 9.44062e-07, No Iterations 41
time step continuity errors : sum local = 3.28696e-06, global = -2.61938e-20, cumulative = -2.56786e-17
ExecutionTime = 214.74 s  ClockTime = 218 s

Time = 19.8

Courant Number mean: 0.0638995 max: 0.125661
DICPCG:  Solving for p, Initial residual = 0.000547176, Final residual = 2.71956e-05, No Iterations 80
smoothSolver:  Solving for omega, Initial residual = 0.00035518, Final residual = 2.09441e-06, No Iterations 1
DICPCG:  Solving for psi, Initial residual = 4.33276e-06, Final residual = 9.7513e-07, No Iterations 42
time step continuity errors : sum local = 3.28697e-06, global = -1.9742e-20, cumulative = -2.56983e-17
ExecutionTime = 214.82 s  ClockTime = 218 s

Time = 19.81

Courant Number mean: 0.0638987 max: 0.125677
DICPCG:  Solving for p, Initial residual = 0.000547403, Final residual = 2.70526e-05, No Iterations 81
smoothSolver:  Solving for omega, Initial residual = 0.000354962, Final residual = 2.09313e-06, No Iterations 1
DICPCG:  Solving for psi, Initial residual = 4.30753e-06, Final residual = 9.47382e-07, No Iterations 41
time step continuity errors : sum local = 3.28698e-06, global = -1.94585e-20, cumulative = -2.57178e-17
ExecutionTime = 214.9 s  ClockTime = 218 s

Time = 19.82

Courant Number mean: 0.0638978 max: 0.125693
DICPCG:  Solving for p, Initial residual = 0.00054726, Final residual = 2.64448e-05, No Iterations 83
smoothSolver:  Solving for omega, Initial residual = 0.000354742, Final residual = 2.09185e-06, No Iterations 1
DICPCG:  Solving for psi, Initial residual = 4.29494e-06, Final residual = 9.6353e-07, No Iterations 43
time step continuity errors : sum local = 3.28699e-06, global = -1.82042e-20, cumulative = -2.5736e-17
ExecutionTime = 214.98 s  ClockTime = 218 s

Time = 19.83

Courant Number mean: 0.0638969 max: 0.125709
DICPCG:  Solving for p, Initial residual = 0.000547127, Final residual = 2.66881e-05, No Iterations 84
smoothSolver:  Solving for omega, Initial residual = 0.000354523, Final residual = 2.09055e-06, No Iterations 1
DICPCG:  Solving for psi, Initial residual = 4.3488e-06, Final residual = 9.89128e-07, No Iterations 41
time step continuity errors : sum local = 3.28702e-06, global = -2.39773e-20, cumulative = -2.57599e-17
ExecutionTime = 215.06 s  ClockTime = 218 s

Time = 19.84

Courant Number mean: 0.0638961 max: 0.125725
DICPCG:  Solving for p, Initial residual = 0.000548107, Final residual = 2.66577e-05, No Iterations 247
smoothSolver:  Solving for omega, Initial residual = 0.000354309, Final residual = 2.08926e-06, No Iterations 1
DICPCG:  Solving for psi, Initial residual = 4.36467e-06, Final residual = 8.57271e-07, No Iterations 42
time step continuity errors : sum local = 3.28702e-06, global = -8.99472e-21, cumulative = -2.57689e-17
ExecutionTime = 215.22 s  ClockTime = 218 s

Time = 19.85

Courant Number mean: 0.0638952 max: 0.125741
DICPCG:  Solving for p, Initial residual = 0.00054563, Final residual = 2.65503e-05, No Iterations 67
smoothSolver:  Solving for omega, Initial residual = 0.000354098, Final residual = 2.08796e-06, No Iterations 1
DICPCG:  Solving for psi, Initial residual = 4.23472e-06, Final residual = 9.82085e-07, No Iterations 41
time step continuity errors : sum local = 3.28703e-06, global = -2.23021e-20, cumulative = -2.57912e-17
ExecutionTime = 215.3 s  ClockTime = 218 s

Time = 19.86

Courant Number mean: 0.0638943 max: 0.125756
DICPCG:  Solving for p, Initial residual = 0.000544487, Final residual = 2.67259e-05, No Iterations 68
smoothSolver:  Solving for omega, Initial residual = 0.000353891, Final residual = 2.08666e-06, No Iterations 1
DICPCG:  Solving for psi, Initial residual = 4.29027e-06, Final residual = 9.7902e-07, No Iterations 42
time step continuity errors : sum local = 3.28704e-06, global = -2.8479e-20, cumulative = -2.58197e-17
ExecutionTime = 215.38 s  ClockTime = 218 s

Time = 19.87

Courant Number mean: 0.0638935 max: 0.125771
DICPCG:  Solving for p, Initial residual = 0.000543368, Final residual = 2.61418e-05, No Iterations 80
smoothSolver:  Solving for omega, Initial residual = 0.000353683, Final residual = 2.08535e-06, No Iterations 1
DICPCG:  Solving for psi, Initial residual = 4.31455e-06, Final residual = 9.94242e-07, No Iterations 41
time step continuity errors : sum local = 3.28706e-06, global = -1.86424e-20, cumulative = -2.58384e-17
ExecutionTime = 215.45 s  ClockTime = 219 s

Time = 19.88

Courant Number mean: 0.0638926 max: 0.125787
DICPCG:  Solving for p, Initial residual = 0.000544447, Final residual = 2.6687e-05, No Iterations 80
smoothSolver:  Solving for omega, Initial residual = 0.000353479, Final residual = 2.08405e-06, No Iterations 1
DICPCG:  Solving for psi, Initial residual = 4.31972e-06, Final residual = 9.94379e-07, No Iterations 42
time step continuity errors : sum local = 3.28706e-06, global = -8.18717e-21, cumulative = -2.58465e-17
ExecutionTime = 215.53 s  ClockTime = 219 s

Time = 19.89

Courant Number mean: 0.0638917 max: 0.125802
DICPCG:  Solving for p, Initial residual = 0.000544326, Final residual = 2.642e-05, No Iterations 81
smoothSolver:  Solving for omega, Initial residual = 0.000353275, Final residual = 2.08277e-06, No Iterations 1
DICPCG:  Solving for psi, Initial residual = 4.30677e-06, Final residual = 9.85872e-07, No Iterations 41
time step continuity errors : sum local = 3.28708e-06, global = -3.42779e-20, cumulative = -2.58808e-17
ExecutionTime = 215.61 s  ClockTime = 219 s

Time = 19.9

Courant Number mean: 0.0638909 max: 0.125817
DICPCG:  Solving for p, Initial residual = 0.000544623, Final residual = 2.67304e-05, No Iterations 82
smoothSolver:  Solving for omega, Initial residual = 0.00035307, Final residual = 2.08148e-06, No Iterations 1
DICPCG:  Solving for psi, Initial residual = 4.29908e-06, Final residual = 9.84765e-07, No Iterations 42
time step continuity errors : sum local = 3.28708e-06, global = 1.63228e-22, cumulative = -2.58807e-17
ExecutionTime = 215.69 s  ClockTime = 219 s

Time = 19.91

Courant Number mean: 0.06389 max: 0.125831
DICPCG:  Solving for p, Initial residual = 0.00054409, Final residual = 2.66258e-05, No Iterations 84
smoothSolver:  Solving for omega, Initial residual = 0.000352867, Final residual = 2.08018e-06, No Iterations 1
DICPCG:  Solving for psi, Initial residual = 4.29571e-06, Final residual = 7.65397e-07, No Iterations 43
time step continuity errors : sum local = 3.2871e-06, global = -1.99396e-20, cumulative = -2.59006e-17
ExecutionTime = 215.8 s  ClockTime = 219 s

Time = 19.92

Courant Number mean: 0.0638891 max: 0.125846
DICPCG:  Solving for p, Initial residual = 0.000543196, Final residual = 2.70394e-05, No Iterations 87
smoothSolver:  Solving for omega, Initial residual = 0.000352663, Final residual = 2.07887e-06, No Iterations 1
DICPCG:  Solving for psi, Initial residual = 4.19692e-06, Final residual = 8.4608e-07, No Iterations 42
time step continuity errors : sum local = 3.28712e-06, global = 5.75593e-21, cumulative = -2.58948e-17
ExecutionTime = 215.9 s  ClockTime = 219 s

Time = 19.93

Courant Number mean: 0.0638882 max: 0.125861
DICPCG:  Solving for p, Initial residual = 0.000542225, Final residual = 2.64525e-05, No Iterations 247
smoothSolver:  Solving for omega, Initial residual = 0.000352461, Final residual = 2.07756e-06, No Iterations 1
DICPCG:  Solving for psi, Initial residual = 4.21201e-06, Final residual = 9.58238e-07, No Iterations 42
time step continuity errors : sum local = 3.28712e-06, global = -2.24138e-20, cumulative = -2.59173e-17
ExecutionTime = 216.11 s  ClockTime = 219 s

Time = 19.94

Courant Number mean: 0.0638873 max: 0.125876
DICPCG:  Solving for p, Initial residual = 0.000542936, Final residual = 2.68864e-05, No Iterations 67
smoothSolver:  Solving for omega, Initial residual = 0.000352257, Final residual = 2.07623e-06, No Iterations 1
DICPCG:  Solving for psi, Initial residual = 4.29177e-06, Final residual = 8.603e-07, No Iterations 42
time step continuity errors : sum local = 3.28713e-06, global = -2.31096e-20, cumulative = -2.59404e-17
ExecutionTime = 216.21 s  ClockTime = 219 s

Time = 19.95

Courant Number mean: 0.0638864 max: 0.12589
DICPCG:  Solving for p, Initial residual = 0.000542051, Final residual = 2.64981e-05, No Iterations 69
smoothSolver:  Solving for omega, Initial residual = 0.00035205, Final residual = 2.07491e-06, No Iterations 1
DICPCG:  Solving for psi, Initial residual = 4.22128e-06, Final residual = 9.61509e-07, No Iterations 41
time step continuity errors : sum local = 3.28714e-06, global = -1.65891e-20, cumulative = -2.5957e-17
ExecutionTime = 216.29 s  ClockTime = 219 s

Time = 19.96

Courant Number mean: 0.0638855 max: 0.125904
DICPCG:  Solving for p, Initial residual = 0.000540894, Final residual = 2.66031e-05, No Iterations 69
smoothSolver:  Solving for omega, Initial residual = 0.000351841, Final residual = 2.07359e-06, No Iterations 1
DICPCG:  Solving for psi, Initial residual = 4.27003e-06, Final residual = 9.5033e-07, No Iterations 41
time step continuity errors : sum local = 3.28713e-06, global = -1.28606e-20, cumulative = -2.59698e-17
ExecutionTime = 216.38 s  ClockTime = 219 s

Time = 19.97

Courant Number mean: 0.0638846 max: 0.125918
DICPCG:  Solving for p, Initial residual = 0.000539177, Final residual = 2.61532e-05, No Iterations 80
smoothSolver:  Solving for omega, Initial residual = 0.000351634, Final residual = 2.07238e-06, No Iterations 1
DICPCG:  Solving for psi, Initial residual = 4.30043e-06, Final residual = 9.6587e-07, No Iterations 41
time step continuity errors : sum local = 3.28716e-06, global = -9.03768e-21, cumulative = -2.59789e-17
ExecutionTime = 216.45 s  ClockTime = 220 s

Time = 19.98

Courant Number mean: 0.0638838 max: 0.125933
DICPCG:  Solving for p, Initial residual = 0.00053937, Final residual = 2.65945e-05, No Iterations 69
smoothSolver:  Solving for omega, Initial residual = 0.00035143, Final residual = 2.07117e-06, No Iterations 1
DICPCG:  Solving for psi, Initial residual = 4.26222e-06, Final residual = 9.90144e-07, No Iterations 41
time step continuity errors : sum local = 3.28715e-06, global = -3.97331e-20, cumulative = -2.60186e-17
ExecutionTime = 216.54 s  ClockTime = 220 s

Time = 19.99

Courant Number mean: 0.0638829 max: 0.125946
DICPCG:  Solving for p, Initial residual = 0.000538098, Final residual = 2.62681e-05, No Iterations 82
smoothSolver:  Solving for omega, Initial residual = 0.000351224, Final residual = 2.06993e-06, No Iterations 1
DICPCG:  Solving for psi, Initial residual = 4.32186e-06, Final residual = 9.27944e-07, No Iterations 42
time step continuity errors : sum local = 3.28718e-06, global = -1.68726e-20, cumulative = -2.60355e-17
ExecutionTime = 216.62 s  ClockTime = 220 s

Time = 20

Courant Number mean: 0.063882 max: 0.12596
DICPCG:  Solving for p, Initial residual = 0.000539689, Final residual = 2.6785e-05, No Iterations 83
smoothSolver:  Solving for omega, Initial residual = 0.000351015, Final residual = 2.06868e-06, No Iterations 1
DICPCG:  Solving for psi, Initial residual = 4.25104e-06, Final residual = 8.53937e-07, No Iterations 43
time step continuity errors : sum local = 3.28718e-06, global = -4.1898e-20, cumulative = -2.60774e-17
ExecutionTime = 216.78 s  ClockTime = 220 s

End

Finalising parallel run
