/*---------------------------------------------------------------------------*\
| =========                 |                                                 |
| \\      /  F ield         | OpenFOAM: The Open Source CFD Toolbox           |
|  \\    /   O peration     | Version:  2212                                  |
|   \\  /    A nd           | Website:  www.openfoam.com                      |
|    \\/     M anipulation  |                                                 |
\*---------------------------------------------------------------------------*/
Build  : _70874860-20230612 OPENFOAM=2212 patch=230612 version=2212
Arch   : "LSB;label=32;scalar=64"
Exec   : ./icoFoam_OmegaPsi -parallel -noFunctionObjects
Date   : Sep 28 2023
Time   : 09:31:18
Host   : Valinor-GL553VD
PID    : 7914
I/O    : uncollated
Case   : /home/yaevon/mhpc/lessons_phd/005_macfd/exercises/vortexMerge_icoFoam
nProcs : 4
Hosts  :
(
    (Valinor-GL553VD 4)
)
Pstream initialized with:
    floatTransfer      : 0
    nProcsSimpleSum    : 0
    commsType          : nonBlocking
    polling iterations : 0
trapFpe: Floating point exception trapping enabled (FOAM_SIGFPE).
fileModificationChecking : Monitoring run-time modified files using timeStampMaster (fileModificationSkew 5, maxFileModificationPolls 20)
allowSystemOperations : Allowing user-supplied system call operations

// * * * * * * * * * * * * * * * * * * * * * * * * * * * * * * * * * * * * * //
Create time

Create mesh for time = 0


PISO: Operating solver in PISO mode

Reading transportProperties

Reading field p

Reading field U

Reading field omega

Reading field psi

Reading/calculating face flux field phi


Starting time loop

Time = 0.01

Courant Number mean: 0.0649376 max: 0.142181
smoothSolver:  Solving for Ux, Initial residual = 0.000468818, Final residual = 2.92882e-06, No Iterations 1
smoothSolver:  Solving for Uy, Initial residual = 0.000659839, Final residual = 3.09016e-06, No Iterations 1
DICPCG:  Solving for p, Initial residual = 1, Final residual = 0.0487631, No Iterations 98
time step continuity errors : sum local = 1.08983e-07, global = -4.25158e-21, cumulative = -4.25158e-21
DICPCG:  Solving for p, Initial residual = 0.0934172, Final residual = 8.97383e-07, No Iterations 452
time step continuity errors : sum local = 3.36327e-12, global = -3.86213e-21, cumulative = -8.11371e-21
DICPCG:  Solving for psi, Initial residual = 1, Final residual = 0.0439025, No Iterations 89
ExecutionTime = 0.64 s  ClockTime = 1 s

Time = 0.02

Courant Number mean: 0.0649361 max: 0.142185
smoothSolver:  Solving for Ux, Initial residual = 0.000213032, Final residual = 1.13315e-06, No Iterations 1
smoothSolver:  Solving for Uy, Initial residual = 0.000230872, Final residual = 1.18952e-06, No Iterations 1
DICPCG:  Solving for p, Initial residual = 0.0131798, Final residual = 0.000656251, No Iterations 247
time step continuity errors : sum local = 2.34193e-09, global = -1.05899e-21, cumulative = -9.17271e-21
DICPCG:  Solving for p, Initial residual = 0.0010493, Final residual = 9.22811e-07, No Iterations 380
time step continuity errors : sum local = 3.2798e-12, global = -1.37105e-20, cumulative = -2.28832e-20
DICPCG:  Solving for psi, Initial residual = 0.000158967, Final residual = 7.75097e-06, No Iterations 35
ExecutionTime = 1.04 s  ClockTime = 1 s

Time = 0.03

Courant Number mean: 0.0649348 max: 0.142189
smoothSolver:  Solving for Ux, Initial residual = 0.000212325, Final residual = 1.13162e-06, No Iterations 1
smoothSolver:  Solving for Uy, Initial residual = 0.000231444, Final residual = 1.191e-06, No Iterations 1
DICPCG:  Solving for p, Initial residual = 0.00138989, Final residual = 6.83939e-05, No Iterations 83
time step continuity errors : sum local = 2.46492e-10, global = -2.63377e-21, cumulative = -2.5517e-20
DICPCG:  Solving for p, Initial residual = 0.000307321, Final residual = 9.46857e-07, No Iterations 316
time step continuity errors : sum local = 3.37211e-12, global = -3.95343e-20, cumulative = -6.50513e-20
DICPCG:  Solving for psi, Initial residual = 1.29052e-05, Final residual = 8.27955e-07, No Iterations 54
ExecutionTime = 1.26 s  ClockTime = 2 s

Time = 0.04

Courant Number mean: 0.0649335 max: 0.142192
smoothSolver:  Solving for Ux, Initial residual = 0.000212289, Final residual = 1.13119e-06, No Iterations 1
smoothSolver:  Solving for Uy, Initial residual = 0.000231411, Final residual = 1.19099e-06, No Iterations 1
DICPCG:  Solving for p, Initial residual = 0.00138469, Final residual = 6.19752e-05, No Iterations 85
time step continuity errors : sum local = 2.23207e-10, global = -4.18602e-20, cumulative = -1.06912e-19
DICPCG:  Solving for p, Initial residual = 0.000304289, Final residual = 9.61882e-07, No Iterations 317
time step continuity errors : sum local = 3.42619e-12, global = 3.25573e-21, cumulative = -1.03656e-19
DICPCG:  Solving for psi, Initial residual = 7.38987e-06, Final residual = 9.85406e-07, No Iterations 52
ExecutionTime = 1.5 s  ClockTime = 2 s

Time = 0.05

Courant Number mean: 0.0649324 max: 0.142195
smoothSolver:  Solving for Ux, Initial residual = 0.000212251, Final residual = 1.13081e-06, No Iterations 1
smoothSolver:  Solving for Uy, Initial residual = 0.000231385, Final residual = 1.19101e-06, No Iterations 1
DICPCG:  Solving for p, Initial residual = 0.00139282, Final residual = 6.82979e-05, No Iterations 84
time step continuity errors : sum local = 2.45639e-10, global = -1.43918e-20, cumulative = -1.18048e-19
DICPCG:  Solving for p, Initial residual = 0.000309044, Final residual = 9.94734e-07, No Iterations 316
time step continuity errors : sum local = 3.53989e-12, global = -1.11446e-20, cumulative = -1.29192e-19
DICPCG:  Solving for psi, Initial residual = 7.41056e-06, Final residual = 9.84452e-07, No Iterations 52
ExecutionTime = 1.77 s  ClockTime = 2 s

Time = 0.06

Courant Number mean: 0.0649313 max: 0.142198
smoothSolver:  Solving for Ux, Initial residual = 0.000212214, Final residual = 1.13048e-06, No Iterations 1
smoothSolver:  Solving for Uy, Initial residual = 0.00023136, Final residual = 1.19105e-06, No Iterations 1
DICPCG:  Solving for p, Initial residual = 0.00139366, Final residual = 6.75571e-05, No Iterations 84
time step continuity errors : sum local = 2.4292e-10, global = -1.55014e-20, cumulative = -1.44694e-19
DICPCG:  Solving for p, Initial residual = 0.000310151, Final residual = 9.37978e-07, No Iterations 317
time step continuity errors : sum local = 3.3389e-12, global = -9.26655e-21, cumulative = -1.5396e-19
DICPCG:  Solving for psi, Initial residual = 7.39385e-06, Final residual = 8.94002e-07, No Iterations 51
ExecutionTime = 2.02 s  ClockTime = 2 s

Time = 0.07

Courant Number mean: 0.0649303 max: 0.142201
smoothSolver:  Solving for Ux, Initial residual = 0.000212178, Final residual = 1.13018e-06, No Iterations 1
smoothSolver:  Solving for Uy, Initial residual = 0.000231336, Final residual = 1.19109e-06, No Iterations 1
DICPCG:  Solving for p, Initial residual = 0.00138578, Final residual = 6.91946e-05, No Iterations 84
time step continuity errors : sum local = 2.48663e-10, global = -2.41502e-20, cumulative = -1.7811e-19
DICPCG:  Solving for p, Initial residual = 0.000312611, Final residual = 9.99444e-07, No Iterations 316
time step continuity errors : sum local = 3.55556e-12, global = -5.17177e-21, cumulative = -1.83282e-19
DICPCG:  Solving for psi, Initial residual = 7.35684e-06, Final residual = 9.58584e-07, No Iterations 51
ExecutionTime = 2.26 s  ClockTime = 3 s

Time = 0.08

Courant Number mean: 0.0649294 max: 0.142203
smoothSolver:  Solving for Ux, Initial residual = 0.000212142, Final residual = 1.1299e-06, No Iterations 1
smoothSolver:  Solving for Uy, Initial residual = 0.000231312, Final residual = 1.19113e-06, No Iterations 1
DICPCG:  Solving for p, Initial residual = 0.00138421, Final residual = 6.87966e-05, No Iterations 84
time step continuity errors : sum local = 2.47173e-10, global = -7.9509e-21, cumulative = -1.91233e-19
DICPCG:  Solving for p, Initial residual = 0.000313247, Final residual = 9.3125e-07, No Iterations 317
time step continuity errors : sum local = 3.31296e-12, global = -3.23354e-20, cumulative = -2.23568e-19
DICPCG:  Solving for psi, Initial residual = 7.39044e-06, Final residual = 8.79326e-07, No Iterations 53
ExecutionTime = 2.51 s  ClockTime = 3 s

Time = 0.09

Courant Number mean: 0.0649286 max: 0.142205
smoothSolver:  Solving for Ux, Initial residual = 0.000212106, Final residual = 1.12964e-06, No Iterations 1
smoothSolver:  Solving for Uy, Initial residual = 0.000231288, Final residual = 1.19118e-06, No Iterations 1
DICPCG:  Solving for p, Initial residual = 0.00138899, Final residual = 6.92804e-05, No Iterations 84
time step continuity errors : sum local = 2.48818e-10, global = -9.18896e-21, cumulative = -2.32757e-19
DICPCG:  Solving for p, Initial residual = 0.00031427, Final residual = 9.96125e-07, No Iterations 316
time step continuity errors : sum local = 3.54234e-12, global = -2.631e-20, cumulative = -2.59067e-19
DICPCG:  Solving for psi, Initial residual = 7.30363e-06, Final residual = 8.58822e-07, No Iterations 53
ExecutionTime = 2.76 s  ClockTime = 3 s

Time = 0.1

Courant Number mean: 0.0649278 max: 0.142207
smoothSolver:  Solving for Ux, Initial residual = 0.000212069, Final residual = 1.12939e-06, No Iterations 1
smoothSolver:  Solving for Uy, Initial residual = 0.000231264, Final residual = 1.19124e-06, No Iterations 1
DICPCG:  Solving for p, Initial residual = 0.0013899, Final residual = 6.93665e-05, No Iterations 84
time step continuity errors : sum local = 2.49051e-10, global = 1.67569e-20, cumulative = -2.42311e-19
DICPCG:  Solving for p, Initial residual = 0.000315572, Final residual = 9.95899e-07, No Iterations 316
time step continuity errors : sum local = 3.54068e-12, global = -1.58629e-20, cumulative = -2.58174e-19
DICPCG:  Solving for psi, Initial residual = 7.28857e-06, Final residual = 9.58972e-07, No Iterations 52
ExecutionTime = 3 s  ClockTime = 3 s

Time = 0.11

Courant Number mean: 0.0649271 max: 0.142208
smoothSolver:  Solving for Ux, Initial residual = 0.000212033, Final residual = 1.12917e-06, No Iterations 1
smoothSolver:  Solving for Uy, Initial residual = 0.00023124, Final residual = 1.1913e-06, No Iterations 1
DICPCG:  Solving for p, Initial residual = 0.00138719, Final residual = 6.87915e-05, No Iterations 84
time step continuity errors : sum local = 2.4694e-10, global = -6.90483e-21, cumulative = -2.65078e-19
DICPCG:  Solving for p, Initial residual = 0.000316885, Final residual = 9.93373e-07, No Iterations 316
time step continuity errors : sum local = 3.53081e-12, global = -1.74363e-21, cumulative = -2.66822e-19
DICPCG:  Solving for psi, Initial residual = 7.33857e-06, Final residual = 9.71127e-07, No Iterations 52
ExecutionTime = 3.24 s  ClockTime = 4 s

Time = 0.12

Courant Number mean: 0.0649264 max: 0.142209
smoothSolver:  Solving for Ux, Initial residual = 0.000211998, Final residual = 1.12895e-06, No Iterations 1
smoothSolver:  Solving for Uy, Initial residual = 0.000231215, Final residual = 1.19137e-06, No Iterations 1
DICPCG:  Solving for p, Initial residual = 0.0013932, Final residual = 6.88824e-05, No Iterations 84
time step continuity errors : sum local = 2.47194e-10, global = -1.62553e-20, cumulative = -2.83077e-19
DICPCG:  Solving for p, Initial residual = 0.000317261, Final residual = 9.88682e-07, No Iterations 316
time step continuity errors : sum local = 3.51327e-12, global = -2.85247e-20, cumulative = -3.11602e-19
DICPCG:  Solving for psi, Initial residual = 7.33469e-06, Final residual = 9.71014e-07, No Iterations 53
ExecutionTime = 3.49 s  ClockTime = 4 s

Time = 0.13

Courant Number mean: 0.0649258 max: 0.14221
smoothSolver:  Solving for Ux, Initial residual = 0.000211962, Final residual = 1.12875e-06, No Iterations 1
smoothSolver:  Solving for Uy, Initial residual = 0.000231191, Final residual = 1.19143e-06, No Iterations 1
DICPCG:  Solving for p, Initial residual = 0.00139715, Final residual = 6.92904e-05, No Iterations 84
time step continuity errors : sum local = 2.48568e-10, global = -1.27156e-20, cumulative = -3.24318e-19
DICPCG:  Solving for p, Initial residual = 0.00031856, Final residual = 9.92111e-07, No Iterations 316
time step continuity errors : sum local = 3.52439e-12, global = -3.03158e-20, cumulative = -3.54633e-19
DICPCG:  Solving for psi, Initial residual = 7.31351e-06, Final residual = 9.58429e-07, No Iterations 52
ExecutionTime = 3.74 s  ClockTime = 4 s

Time = 0.14

Courant Number mean: 0.0649252 max: 0.14221
smoothSolver:  Solving for Ux, Initial residual = 0.000211926, Final residual = 1.12856e-06, No Iterations 1
smoothSolver:  Solving for Uy, Initial residual = 0.000231167, Final residual = 1.19151e-06, No Iterations 1
DICPCG:  Solving for p, Initial residual = 0.00139132, Final residual = 6.32877e-05, No Iterations 85
time step continuity errors : sum local = 2.27194e-10, global = -1.6551e-20, cumulative = -3.71184e-19
DICPCG:  Solving for p, Initial residual = 0.000315996, Final residual = 9.77287e-07, No Iterations 316
time step continuity errors : sum local = 3.47066e-12, global = -1.66696e-20, cumulative = -3.87854e-19
DICPCG:  Solving for psi, Initial residual = 7.29754e-06, Final residual = 9.49274e-07, No Iterations 52
ExecutionTime = 3.98 s  ClockTime = 4 s

Time = 0.15

Courant Number mean: 0.0649247 max: 0.14221
smoothSolver:  Solving for Ux, Initial residual = 0.00021189, Final residual = 1.12838e-06, No Iterations 1
smoothSolver:  Solving for Uy, Initial residual = 0.000231142, Final residual = 1.19158e-06, No Iterations 1
DICPCG:  Solving for p, Initial residual = 0.00139664, Final residual = 6.45692e-05, No Iterations 85
time step continuity errors : sum local = 2.3167e-10, global = -2.71319e-20, cumulative = -4.14986e-19
DICPCG:  Solving for p, Initial residual = 0.000317187, Final residual = 9.84367e-07, No Iterations 316
time step continuity errors : sum local = 3.49487e-12, global = -4.48318e-20, cumulative = -4.59818e-19
DICPCG:  Solving for psi, Initial residual = 7.33637e-06, Final residual = 9.40118e-07, No Iterations 51
ExecutionTime = 4.25 s  ClockTime = 5 s

Time = 0.16

Courant Number mean: 0.0649242 max: 0.14221
smoothSolver:  Solving for Ux, Initial residual = 0.000211855, Final residual = 1.1282e-06, No Iterations 1
smoothSolver:  Solving for Uy, Initial residual = 0.000231118, Final residual = 1.19167e-06, No Iterations 1
DICPCG:  Solving for p, Initial residual = 0.00139913, Final residual = 6.40078e-05, No Iterations 85
time step continuity errors : sum local = 2.29618e-10, global = -1.58655e-20, cumulative = -4.75683e-19
DICPCG:  Solving for p, Initial residual = 0.000318086, Final residual = 9.81877e-07, No Iterations 316
time step continuity errors : sum local = 3.48474e-12, global = -2.4112e-20, cumulative = -4.99795e-19
DICPCG:  Solving for psi, Initial residual = 7.31567e-06, Final residual = 9.85949e-07, No Iterations 51
ExecutionTime = 4.5 s  ClockTime = 5 s

Time = 0.17

Courant Number mean: 0.0649238 max: 0.14221
smoothSolver:  Solving for Ux, Initial residual = 0.00021182, Final residual = 1.12802e-06, No Iterations 1
smoothSolver:  Solving for Uy, Initial residual = 0.000231094, Final residual = 1.19175e-06, No Iterations 1
DICPCG:  Solving for p, Initial residual = 0.00141983, Final residual = 6.87989e-05, No Iterations 84
time step continuity errors : sum local = 2.46546e-10, global = -2.54319e-20, cumulative = -5.25227e-19
DICPCG:  Solving for p, Initial residual = 0.000320385, Final residual = 9.4673e-07, No Iterations 317
time step continuity errors : sum local = 3.36086e-12, global = -1.43674e-20, cumulative = -5.39594e-19
DICPCG:  Solving for psi, Initial residual = 7.33689e-06, Final residual = 9.9577e-07, No Iterations 51
ExecutionTime = 4.87 s  ClockTime = 5 s

Time = 0.18

Courant Number mean: 0.0649235 max: 0.142209
smoothSolver:  Solving for Ux, Initial residual = 0.000211785, Final residual = 1.12785e-06, No Iterations 1
smoothSolver:  Solving for Uy, Initial residual = 0.000231066, Final residual = 1.19182e-06, No Iterations 1
DICPCG:  Solving for p, Initial residual = 0.00145922, Final residual = 7.20996e-05, No Iterations 83
time step continuity errors : sum local = 2.58217e-10, global = -7.07629e-22, cumulative = -5.40302e-19
DICPCG:  Solving for p, Initial residual = 0.000320383, Final residual = 9.84423e-07, No Iterations 316
time step continuity errors : sum local = 3.49176e-12, global = -1.58398e-20, cumulative = -5.56142e-19
DICPCG:  Solving for psi, Initial residual = 7.33275e-06, Final residual = 9.75897e-07, No Iterations 51
ExecutionTime = 5.12 s  ClockTime = 6 s

Time = 0.19

Courant Number mean: 0.0649234 max: 0.142208
smoothSolver:  Solving for Ux, Initial residual = 0.000211751, Final residual = 1.12769e-06, No Iterations 1
smoothSolver:  Solving for Uy, Initial residual = 0.000231044, Final residual = 1.19193e-06, No Iterations 1
DICPCG:  Solving for p, Initial residual = 0.00148428, Final residual = 7.39975e-05, No Iterations 81
time step continuity errors : sum local = 2.64916e-10, global = -2.2054e-20, cumulative = -5.78196e-19
DICPCG:  Solving for p, Initial residual = 0.000324758, Final residual = 9.40633e-07, No Iterations 317
time step continuity errors : sum local = 3.33691e-12, global = -2.20675e-20, cumulative = -6.00263e-19
DICPCG:  Solving for psi, Initial residual = 7.3114e-06, Final residual = 8.66875e-07, No Iterations 53
ExecutionTime = 5.37 s  ClockTime = 6 s

Time = 0.2

Courant Number mean: 0.0649234 max: 0.142206
smoothSolver:  Solving for Ux, Initial residual = 0.000211715, Final residual = 1.12754e-06, No Iterations 1
smoothSolver:  Solving for Uy, Initial residual = 0.000231021, Final residual = 1.19202e-06, No Iterations 1
DICPCG:  Solving for p, Initial residual = 0.00145731, Final residual = 7.26166e-05, No Iterations 82
time step continuity errors : sum local = 2.59919e-10, global = -4.46854e-20, cumulative = -6.44949e-19
DICPCG:  Solving for p, Initial residual = 0.000324703, Final residual = 9.36837e-07, No Iterations 317
time step continuity errors : sum local = 3.32277e-12, global = -1.54987e-20, cumulative = -6.60447e-19
DICPCG:  Solving for psi, Initial residual = 7.21348e-06, Final residual = 8.27027e-07, No Iterations 53
ExecutionTime = 5.62 s  ClockTime = 6 s

Time = 0.21

Courant Number mean: 0.0649235 max: 0.142205
smoothSolver:  Solving for Ux, Initial residual = 0.000211679, Final residual = 1.12739e-06, No Iterations 1
smoothSolver:  Solving for Uy, Initial residual = 0.000230995, Final residual = 1.1921e-06, No Iterations 1
DICPCG:  Solving for p, Initial residual = 0.00142595, Final residual = 6.99287e-05, No Iterations 84
time step continuity errors : sum local = 2.50268e-10, global = -2.42895e-20, cumulative = -6.84737e-19
DICPCG:  Solving for p, Initial residual = 0.000325479, Final residual = 9.62638e-07, No Iterations 316
time step continuity errors : sum local = 3.41196e-12, global = 1.07514e-21, cumulative = -6.83662e-19
DICPCG:  Solving for psi, Initial residual = 7.1737e-06, Final residual = 9.10103e-07, No Iterations 52
ExecutionTime = 5.88 s  ClockTime = 6 s

Time = 0.22

Courant Number mean: 0.0649237 max: 0.142203
smoothSolver:  Solving for Ux, Initial residual = 0.000211644, Final residual = 1.12724e-06, No Iterations 1
smoothSolver:  Solving for Uy, Initial residual = 0.000230969, Final residual = 1.19219e-06, No Iterations 1
DICPCG:  Solving for p, Initial residual = 0.00141917, Final residual = 7.04504e-05, No Iterations 84
time step continuity errors : sum local = 2.52035e-10, global = -2.30802e-20, cumulative = -7.06742e-19
DICPCG:  Solving for p, Initial residual = 0.000327208, Final residual = 9.79182e-07, No Iterations 316
time step continuity errors : sum local = 3.46973e-12, global = -4.03974e-21, cumulative = -7.10782e-19
DICPCG:  Solving for psi, Initial residual = 7.20968e-06, Final residual = 8.51527e-07, No Iterations 53
ExecutionTime = 6.18 s  ClockTime = 7 s

Time = 0.23

Courant Number mean: 0.0649239 max: 0.142208
smoothSolver:  Solving for Ux, Initial residual = 0.000211608, Final residual = 1.12709e-06, No Iterations 1
smoothSolver:  Solving for Uy, Initial residual = 0.000230943, Final residual = 1.19228e-06, No Iterations 1
DICPCG:  Solving for p, Initial residual = 0.00140761, Final residual = 6.97862e-05, No Iterations 84
time step continuity errors : sum local = 2.4962e-10, global = -2.03448e-20, cumulative = -7.31126e-19
DICPCG:  Solving for p, Initial residual = 0.000328825, Final residual = 9.80566e-07, No Iterations 316
time step continuity errors : sum local = 3.47384e-12, global = 1.04232e-21, cumulative = -7.30084e-19
DICPCG:  Solving for psi, Initial residual = 7.13331e-06, Final residual = 9.74241e-07, No Iterations 52
ExecutionTime = 6.44 s  ClockTime = 7 s

Time = 0.24

Courant Number mean: 0.0649242 max: 0.142212
smoothSolver:  Solving for Ux, Initial residual = 0.000211574, Final residual = 1.12694e-06, No Iterations 1
smoothSolver:  Solving for Uy, Initial residual = 0.000230917, Final residual = 1.19237e-06, No Iterations 1
DICPCG:  Solving for p, Initial residual = 0.0014072, Final residual = 6.46032e-05, No Iterations 85
time step continuity errors : sum local = 2.31194e-10, global = -3.04478e-20, cumulative = -7.60532e-19
DICPCG:  Solving for p, Initial residual = 0.000326699, Final residual = 9.52095e-07, No Iterations 316
time step continuity errors : sum local = 3.37145e-12, global = -3.45073e-20, cumulative = -7.95039e-19
DICPCG:  Solving for psi, Initial residual = 7.23536e-06, Final residual = 9.71677e-07, No Iterations 52
ExecutionTime = 6.76 s  ClockTime = 7 s

Time = 0.25

Courant Number mean: 0.0649245 max: 0.142216
smoothSolver:  Solving for Ux, Initial residual = 0.00021154, Final residual = 1.12679e-06, No Iterations 1
smoothSolver:  Solving for Uy, Initial residual = 0.00023089, Final residual = 1.19246e-06, No Iterations 1
DICPCG:  Solving for p, Initial residual = 0.00141362, Final residual = 7.04598e-05, No Iterations 84
time step continuity errors : sum local = 2.51855e-10, global = -2.55029e-20, cumulative = -8.20542e-19
DICPCG:  Solving for p, Initial residual = 0.000331552, Final residual = 9.6218e-07, No Iterations 316
time step continuity errors : sum local = 3.40656e-12, global = -3.01958e-20, cumulative = -8.50738e-19
DICPCG:  Solving for psi, Initial residual = 7.26376e-06, Final residual = 9.63462e-07, No Iterations 51
ExecutionTime = 7.06 s  ClockTime = 7 s

Time = 0.26

Courant Number mean: 0.0649249 max: 0.14222
smoothSolver:  Solving for Ux, Initial residual = 0.000211507, Final residual = 1.12664e-06, No Iterations 1
smoothSolver:  Solving for Uy, Initial residual = 0.000230864, Final residual = 1.19255e-06, No Iterations 1
DICPCG:  Solving for p, Initial residual = 0.00141152, Final residual = 6.35824e-05, No Iterations 85
time step continuity errors : sum local = 2.27455e-10, global = -1.43291e-20, cumulative = -8.65067e-19
DICPCG:  Solving for p, Initial residual = 0.000329561, Final residual = 9.50012e-07, No Iterations 316
time step continuity errors : sum local = 3.36211e-12, global = -2.31049e-20, cumulative = -8.88172e-19
DICPCG:  Solving for psi, Initial residual = 7.25236e-06, Final residual = 9.8048e-07, No Iterations 53
ExecutionTime = 7.3 s  ClockTime = 8 s

Time = 0.27

Courant Number mean: 0.0649253 max: 0.142224
smoothSolver:  Solving for Ux, Initial residual = 0.000211474, Final residual = 1.1265e-06, No Iterations 1
smoothSolver:  Solving for Uy, Initial residual = 0.000230837, Final residual = 1.19265e-06, No Iterations 1
DICPCG:  Solving for p, Initial residual = 0.00141345, Final residual = 6.41636e-05, No Iterations 85
time step continuity errors : sum local = 2.2944e-10, global = -2.01575e-20, cumulative = -9.08329e-19
DICPCG:  Solving for p, Initial residual = 0.000330746, Final residual = 9.49629e-07, No Iterations 316
time step continuity errors : sum local = 3.35976e-12, global = -3.67066e-20, cumulative = -9.45036e-19
DICPCG:  Solving for psi, Initial residual = 7.22639e-06, Final residual = 9.63308e-07, No Iterations 53
ExecutionTime = 7.55 s  ClockTime = 8 s

Time = 0.28

Courant Number mean: 0.0649258 max: 0.142227
smoothSolver:  Solving for Ux, Initial residual = 0.00021144, Final residual = 1.12635e-06, No Iterations 1
smoothSolver:  Solving for Uy, Initial residual = 0.000230811, Final residual = 1.19274e-06, No Iterations 1
DICPCG:  Solving for p, Initial residual = 0.00141181, Final residual = 6.95163e-05, No Iterations 84
time step continuity errors : sum local = 2.483e-10, global = -2.45413e-20, cumulative = -9.69577e-19
DICPCG:  Solving for p, Initial residual = 0.000334742, Final residual = 9.505e-07, No Iterations 316
time step continuity errors : sum local = 3.36206e-12, global = -1.39211e-20, cumulative = -9.83498e-19
DICPCG:  Solving for psi, Initial residual = 7.25048e-06, Final residual = 9.5555e-07, No Iterations 52
ExecutionTime = 7.79 s  ClockTime = 8 s

Time = 0.29

Courant Number mean: 0.0649262 max: 0.14223
smoothSolver:  Solving for Ux, Initial residual = 0.000211407, Final residual = 1.1262e-06, No Iterations 1
smoothSolver:  Solving for Uy, Initial residual = 0.000230785, Final residual = 1.19283e-06, No Iterations 1
DICPCG:  Solving for p, Initial residual = 0.00141734, Final residual = 6.89324e-05, No Iterations 84
time step continuity errors : sum local = 2.46165e-10, global = -4.31531e-20, cumulative = -1.02665e-18
DICPCG:  Solving for p, Initial residual = 0.000335883, Final residual = 9.4369e-07, No Iterations 316
time step continuity errors : sum local = 3.33717e-12, global = -1.96866e-20, cumulative = -1.04634e-18
DICPCG:  Solving for psi, Initial residual = 7.21978e-06, Final residual = 9.33607e-07, No Iterations 53
ExecutionTime = 8.03 s  ClockTime = 8 s

Time = 0.3

Courant Number mean: 0.0649267 max: 0.142232
smoothSolver:  Solving for Ux, Initial residual = 0.000211375, Final residual = 1.12604e-06, No Iterations 1
smoothSolver:  Solving for Uy, Initial residual = 0.000230759, Final residual = 1.19292e-06, No Iterations 1
DICPCG:  Solving for p, Initial residual = 0.00141072, Final residual = 6.38318e-05, No Iterations 85
time step continuity errors : sum local = 2.28065e-10, global = -3.4366e-20, cumulative = -1.0807e-18
DICPCG:  Solving for p, Initial residual = 0.000333148, Final residual = 9.41011e-07, No Iterations 316
time step continuity errors : sum local = 3.32618e-12, global = -8.74705e-21, cumulative = -1.08945e-18
DICPCG:  Solving for psi, Initial residual = 7.15319e-06, Final residual = 9.41252e-07, No Iterations 53
ExecutionTime = 8.27 s  ClockTime = 9 s

Time = 0.31

Courant Number mean: 0.0649273 max: 0.142234
smoothSolver:  Solving for Ux, Initial residual = 0.000211343, Final residual = 1.1259e-06, No Iterations 1
smoothSolver:  Solving for Uy, Initial residual = 0.000230733, Final residual = 1.19301e-06, No Iterations 1
DICPCG:  Solving for p, Initial residual = 0.00141276, Final residual = 7.04121e-05, No Iterations 84
time step continuity errors : sum local = 2.51243e-10, global = -1.6142e-20, cumulative = -1.10559e-18
DICPCG:  Solving for p, Initial residual = 0.000339006, Final residual = 9.52722e-07, No Iterations 316
time step continuity errors : sum local = 3.3669e-12, global = -2.03298e-20, cumulative = -1.12592e-18
DICPCG:  Solving for psi, Initial residual = 7.25206e-06, Final residual = 9.38597e-07, No Iterations 52
ExecutionTime = 8.51 s  ClockTime = 9 s

Time = 0.32

Courant Number mean: 0.0649278 max: 0.142236
smoothSolver:  Solving for Ux, Initial residual = 0.000211311, Final residual = 1.12575e-06, No Iterations 1
smoothSolver:  Solving for Uy, Initial residual = 0.000230708, Final residual = 1.1931e-06, No Iterations 1
DICPCG:  Solving for p, Initial residual = 0.00141482, Final residual = 6.98448e-05, No Iterations 84
time step continuity errors : sum local = 2.49163e-10, global = 8.82624e-21, cumulative = -1.1171e-18
DICPCG:  Solving for p, Initial residual = 0.000340022, Final residual = 9.44511e-07, No Iterations 316
time step continuity errors : sum local = 3.33683e-12, global = -3.0857e-20, cumulative = -1.14795e-18
DICPCG:  Solving for psi, Initial residual = 7.19971e-06, Final residual = 9.56353e-07, No Iterations 52
ExecutionTime = 8.75 s  ClockTime = 9 s

Time = 0.33

Courant Number mean: 0.0649284 max: 0.142238
smoothSolver:  Solving for Ux, Initial residual = 0.00021128, Final residual = 1.12562e-06, No Iterations 1
smoothSolver:  Solving for Uy, Initial residual = 0.000230682, Final residual = 1.19319e-06, No Iterations 1
DICPCG:  Solving for p, Initial residual = 0.00141728, Final residual = 6.95727e-05, No Iterations 84
time step continuity errors : sum local = 2.4813e-10, global = -8.56363e-21, cumulative = -1.15652e-18
DICPCG:  Solving for p, Initial residual = 0.000340851, Final residual = 9.50569e-07, No Iterations 316
time step continuity errors : sum local = 3.35721e-12, global = -1.44025e-20, cumulative = -1.17092e-18
DICPCG:  Solving for psi, Initial residual = 7.23482e-06, Final residual = 8.37584e-07, No Iterations 54
ExecutionTime = 8.99 s  ClockTime = 9 s

Time = 0.34

Courant Number mean: 0.064929 max: 0.142239
smoothSolver:  Solving for Ux, Initial residual = 0.000211249, Final residual = 1.12548e-06, No Iterations 1
smoothSolver:  Solving for Uy, Initial residual = 0.000230657, Final residual = 1.19327e-06, No Iterations 1
DICPCG:  Solving for p, Initial residual = 0.00141293, Final residual = 7.03294e-05, No Iterations 84
time step continuity errors : sum local = 2.50723e-10, global = -2.11951e-20, cumulative = -1.19211e-18
DICPCG:  Solving for p, Initial residual = 0.000341907, Final residual = 9.45019e-07, No Iterations 316
time step continuity errors : sum local = 3.33655e-12, global = -1.64766e-20, cumulative = -1.20859e-18
DICPCG:  Solving for psi, Initial residual = 7.11366e-06, Final residual = 9.42865e-07, No Iterations 52
ExecutionTime = 9.24 s  ClockTime = 10 s

Time = 0.35

Courant Number mean: 0.0649297 max: 0.142241
smoothSolver:  Solving for Ux, Initial residual = 0.000211218, Final residual = 1.12535e-06, No Iterations 1
smoothSolver:  Solving for Uy, Initial residual = 0.000230631, Final residual = 1.19335e-06, No Iterations 1
DICPCG:  Solving for p, Initial residual = 0.00142271, Final residual = 7.06754e-05, No Iterations 84
time step continuity errors : sum local = 2.51872e-10, global = -1.30536e-20, cumulative = -1.22164e-18
DICPCG:  Solving for p, Initial residual = 0.000343885, Final residual = 9.36954e-07, No Iterations 316
time step continuity errors : sum local = 3.30719e-12, global = -2.00558e-20, cumulative = -1.2417e-18
DICPCG:  Solving for psi, Initial residual = 7.21132e-06, Final residual = 7.7315e-07, No Iterations 53
ExecutionTime = 9.48 s  ClockTime = 10 s

Time = 0.36

Courant Number mean: 0.0649303 max: 0.142241
smoothSolver:  Solving for Ux, Initial residual = 0.000211186, Final residual = 1.12521e-06, No Iterations 1
smoothSolver:  Solving for Uy, Initial residual = 0.000230605, Final residual = 1.19343e-06, No Iterations 1
DICPCG:  Solving for p, Initial residual = 0.00141779, Final residual = 6.98133e-05, No Iterations 84
time step continuity errors : sum local = 2.48753e-10, global = -8.82498e-21, cumulative = -1.25053e-18
DICPCG:  Solving for p, Initial residual = 0.00034458, Final residual = 9.35344e-07, No Iterations 316
time step continuity errors : sum local = 3.30032e-12, global = -1.39199e-20, cumulative = -1.26445e-18
DICPCG:  Solving for psi, Initial residual = 7.07763e-06, Final residual = 9.16469e-07, No Iterations 52
ExecutionTime = 9.72 s  ClockTime = 10 s

Time = 0.37

Courant Number mean: 0.064931 max: 0.142242
smoothSolver:  Solving for Ux, Initial residual = 0.000211155, Final residual = 1.12507e-06, No Iterations 1
smoothSolver:  Solving for Uy, Initial residual = 0.000230579, Final residual = 1.19352e-06, No Iterations 1
DICPCG:  Solving for p, Initial residual = 0.00141436, Final residual = 7.02922e-05, No Iterations 84
time step continuity errors : sum local = 2.50364e-10, global = 8.64789e-21, cumulative = -1.2558e-18
DICPCG:  Solving for p, Initial residual = 0.00034611, Final residual = 9.33601e-07, No Iterations 316
time step continuity errors : sum local = 3.2932e-12, global = -2.18331e-20, cumulative = -1.27763e-18
DICPCG:  Solving for psi, Initial residual = 7.15888e-06, Final residual = 8.52639e-07, No Iterations 53
ExecutionTime = 9.96 s  ClockTime = 10 s

Time = 0.38

Courant Number mean: 0.0649317 max: 0.142242
smoothSolver:  Solving for Ux, Initial residual = 0.000211123, Final residual = 1.12494e-06, No Iterations 1
smoothSolver:  Solving for Uy, Initial residual = 0.000230553, Final residual = 1.1936e-06, No Iterations 1
DICPCG:  Solving for p, Initial residual = 0.00141243, Final residual = 6.98581e-05, No Iterations 84
time step continuity errors : sum local = 2.4876e-10, global = -1.56805e-20, cumulative = -1.29331e-18
DICPCG:  Solving for p, Initial residual = 0.000346997, Final residual = 9.23437e-07, No Iterations 316
time step continuity errors : sum local = 3.25634e-12, global = -6.74124e-21, cumulative = -1.30005e-18
DICPCG:  Solving for psi, Initial residual = 7.12031e-06, Final residual = 9.61481e-07, No Iterations 52
ExecutionTime = 10.19 s  ClockTime = 11 s

Time = 0.39

Courant Number mean: 0.0649324 max: 0.142242
smoothSolver:  Solving for Ux, Initial residual = 0.000211092, Final residual = 1.1248e-06, No Iterations 1
smoothSolver:  Solving for Uy, Initial residual = 0.000230526, Final residual = 1.19368e-06, No Iterations 1
DICPCG:  Solving for p, Initial residual = 0.00141549, Final residual = 6.99077e-05, No Iterations 84
time step continuity errors : sum local = 2.48861e-10, global = 5.09252e-21, cumulative = -1.29496e-18
DICPCG:  Solving for p, Initial residual = 0.000348163, Final residual = 9.22978e-07, No Iterations 316
time step continuity errors : sum local = 3.25372e-12, global = -9.423e-21, cumulative = -1.30438e-18
DICPCG:  Solving for psi, Initial residual = 7.19452e-06, Final residual = 8.90302e-07, No Iterations 53
ExecutionTime = 10.43 s  ClockTime = 11 s

Time = 0.4

Courant Number mean: 0.0649332 max: 0.142242
smoothSolver:  Solving for Ux, Initial residual = 0.000211061, Final residual = 1.12466e-06, No Iterations 1
smoothSolver:  Solving for Uy, Initial residual = 0.0002305, Final residual = 1.19376e-06, No Iterations 1
DICPCG:  Solving for p, Initial residual = 0.00141862, Final residual = 6.97187e-05, No Iterations 84
time step continuity errors : sum local = 2.48123e-10, global = -2.41508e-20, cumulative = -1.32853e-18
DICPCG:  Solving for p, Initial residual = 0.000349124, Final residual = 9.25899e-07, No Iterations 316
time step continuity errors : sum local = 3.26295e-12, global = -1.52448e-20, cumulative = -1.34378e-18
DICPCG:  Solving for psi, Initial residual = 7.11846e-06, Final residual = 9.23033e-07, No Iterations 52
ExecutionTime = 10.67 s  ClockTime = 11 s

Time = 0.41

Courant Number mean: 0.0649339 max: 0.142241
smoothSolver:  Solving for Ux, Initial residual = 0.00021103, Final residual = 1.12453e-06, No Iterations 1
smoothSolver:  Solving for Uy, Initial residual = 0.000230474, Final residual = 1.19384e-06, No Iterations 1
DICPCG:  Solving for p, Initial residual = 0.00143389, Final residual = 7.14674e-05, No Iterations 83
time step continuity errors : sum local = 2.54226e-10, global = -2.0792e-20, cumulative = -1.36457e-18
DICPCG:  Solving for p, Initial residual = 0.000351784, Final residual = 9.36845e-07, No Iterations 316
time step continuity errors : sum local = 3.30087e-12, global = -1.7564e-20, cumulative = -1.38213e-18
DICPCG:  Solving for psi, Initial residual = 7.16032e-06, Final residual = 9.01978e-07, No Iterations 53
ExecutionTime = 10.91 s  ClockTime = 11 s

Time = 0.42

Courant Number mean: 0.0649347 max: 0.14224
smoothSolver:  Solving for Ux, Initial residual = 0.000210999, Final residual = 1.12438e-06, No Iterations 1
smoothSolver:  Solving for Uy, Initial residual = 0.000230448, Final residual = 1.19391e-06, No Iterations 1
DICPCG:  Solving for p, Initial residual = 0.00143428, Final residual = 7.13239e-05, No Iterations 83
time step continuity errors : sum local = 2.53639e-10, global = -7.64174e-21, cumulative = -1.38978e-18
DICPCG:  Solving for p, Initial residual = 0.000353079, Final residual = 9.22212e-07, No Iterations 316
time step continuity errors : sum local = 3.2481e-12, global = -1.39845e-20, cumulative = -1.40376e-18
DICPCG:  Solving for psi, Initial residual = 7.13415e-06, Final residual = 9.6516e-07, No Iterations 52
ExecutionTime = 11.15 s  ClockTime = 12 s

Time = 0.43

Courant Number mean: 0.0649355 max: 0.142239
smoothSolver:  Solving for Ux, Initial residual = 0.000210968, Final residual = 1.12424e-06, No Iterations 1
smoothSolver:  Solving for Uy, Initial residual = 0.000230421, Final residual = 1.19399e-06, No Iterations 1
DICPCG:  Solving for p, Initial residual = 0.00142139, Final residual = 6.97101e-05, No Iterations 84
time step continuity errors : sum local = 2.47865e-10, global = -9.04779e-21, cumulative = -1.41281e-18
DICPCG:  Solving for p, Initial residual = 0.000352689, Final residual = 9.23199e-07, No Iterations 316
time step continuity errors : sum local = 3.25048e-12, global = -2.78785e-20, cumulative = -1.44069e-18
DICPCG:  Solving for psi, Initial residual = 7.19693e-06, Final residual = 9.13893e-07, No Iterations 53
ExecutionTime = 11.4 s  ClockTime = 12 s

Time = 0.44

Courant Number mean: 0.0649363 max: 0.142237
smoothSolver:  Solving for Ux, Initial residual = 0.000210937, Final residual = 1.1241e-06, No Iterations 1
smoothSolver:  Solving for Uy, Initial residual = 0.000230393, Final residual = 1.19406e-06, No Iterations 1
DICPCG:  Solving for p, Initial residual = 0.00142724, Final residual = 6.97644e-05, No Iterations 84
time step continuity errors : sum local = 2.47977e-10, global = -2.26503e-20, cumulative = -1.46334e-18
DICPCG:  Solving for p, Initial residual = 0.00035368, Final residual = 9.2185e-07, No Iterations 316
time step continuity errors : sum local = 3.24439e-12, global = -5.85086e-21, cumulative = -1.46919e-18
DICPCG:  Solving for psi, Initial residual = 7.12954e-06, Final residual = 9.53623e-07, No Iterations 52
ExecutionTime = 11.64 s  ClockTime = 12 s

Time = 0.45

Courant Number mean: 0.0649371 max: 0.142235
smoothSolver:  Solving for Ux, Initial residual = 0.000210906, Final residual = 1.12396e-06, No Iterations 1
smoothSolver:  Solving for Uy, Initial residual = 0.000230366, Final residual = 1.19413e-06, No Iterations 1
DICPCG:  Solving for p, Initial residual = 0.00142815, Final residual = 6.87192e-05, No Iterations 84
time step continuity errors : sum local = 2.44231e-10, global = -1.47918e-20, cumulative = -1.48398e-18
DICPCG:  Solving for p, Initial residual = 0.000354163, Final residual = 9.17443e-07, No Iterations 316
time step continuity errors : sum local = 3.22806e-12, global = 7.22784e-21, cumulative = -1.47675e-18
DICPCG:  Solving for psi, Initial residual = 7.16925e-06, Final residual = 9.24872e-07, No Iterations 53
ExecutionTime = 11.88 s  ClockTime = 12 s

Time = 0.46

Courant Number mean: 0.064938 max: 0.142233
smoothSolver:  Solving for Ux, Initial residual = 0.000210875, Final residual = 1.12382e-06, No Iterations 1
smoothSolver:  Solving for Uy, Initial residual = 0.000230338, Final residual = 1.19419e-06, No Iterations 1
DICPCG:  Solving for p, Initial residual = 0.00142168, Final residual = 6.96766e-05, No Iterations 84
time step continuity errors : sum local = 2.47517e-10, global = -2.8494e-20, cumulative = -1.50525e-18
DICPCG:  Solving for p, Initial residual = 0.000355626, Final residual = 9.14531e-07, No Iterations 316
time step continuity errors : sum local = 3.21666e-12, global = -1.44999e-20, cumulative = -1.51975e-18
DICPCG:  Solving for psi, Initial residual = 7.13528e-06, Final residual = 9.86825e-07, No Iterations 52
ExecutionTime = 12.12 s  ClockTime = 13 s

Time = 0.47

Courant Number mean: 0.0649388 max: 0.142231
smoothSolver:  Solving for Ux, Initial residual = 0.000210844, Final residual = 1.12368e-06, No Iterations 1
smoothSolver:  Solving for Uy, Initial residual = 0.00023031, Final residual = 1.19426e-06, No Iterations 1
DICPCG:  Solving for p, Initial residual = 0.00143869, Final residual = 6.81342e-05, No Iterations 84
time step continuity errors : sum local = 2.42032e-10, global = -1.17851e-20, cumulative = -1.53153e-18
DICPCG:  Solving for p, Initial residual = 0.000355605, Final residual = 9.16284e-07, No Iterations 316
time step continuity errors : sum local = 3.22193e-12, global = -9.759e-21, cumulative = -1.54129e-18
DICPCG:  Solving for psi, Initial residual = 7.19762e-06, Final residual = 9.09625e-07, No Iterations 53
ExecutionTime = 12.37 s  ClockTime = 13 s

Time = 0.48

Courant Number mean: 0.0649397 max: 0.142228
smoothSolver:  Solving for Ux, Initial residual = 0.000210813, Final residual = 1.12353e-06, No Iterations 1
smoothSolver:  Solving for Uy, Initial residual = 0.000230281, Final residual = 1.19432e-06, No Iterations 1
DICPCG:  Solving for p, Initial residual = 0.00143782, Final residual = 7.16075e-05, No Iterations 83
time step continuity errors : sum local = 2.54176e-10, global = -2.01005e-20, cumulative = -1.56139e-18
DICPCG:  Solving for p, Initial residual = 0.00035855, Final residual = 9.31372e-07, No Iterations 316
time step continuity errors : sum local = 3.2742e-12, global = -1.24959e-20, cumulative = -1.57389e-18
DICPCG:  Solving for psi, Initial residual = 7.12169e-06, Final residual = 9.51409e-07, No Iterations 52
ExecutionTime = 12.65 s  ClockTime = 13 s

Time = 0.49

Courant Number mean: 0.0649406 max: 0.142225
smoothSolver:  Solving for Ux, Initial residual = 0.000210781, Final residual = 1.12339e-06, No Iterations 1
smoothSolver:  Solving for Uy, Initial residual = 0.000230253, Final residual = 1.19437e-06, No Iterations 1
DICPCG:  Solving for p, Initial residual = 0.0014285, Final residual = 6.9805e-05, No Iterations 84
time step continuity errors : sum local = 2.47744e-10, global = -1.23499e-20, cumulative = -1.58624e-18
DICPCG:  Solving for p, Initial residual = 0.000359534, Final residual = 9.0781e-07, No Iterations 316
time step continuity errors : sum local = 3.19006e-12, global = -3.22703e-20, cumulative = -1.61851e-18
DICPCG:  Solving for psi, Initial residual = 7.16184e-06, Final residual = 9.27945e-07, No Iterations 53
ExecutionTime = 12.9 s  ClockTime = 13 s

Time = 0.5

Courant Number mean: 0.0649415 max: 0.142221
smoothSolver:  Solving for Ux, Initial residual = 0.00021075, Final residual = 1.12324e-06, No Iterations 1
smoothSolver:  Solving for Uy, Initial residual = 0.000230224, Final residual = 1.19443e-06, No Iterations 1
DICPCG:  Solving for p, Initial residual = 0.00150008, Final residual = 7.18541e-05, No Iterations 81
time step continuity errors : sum local = 2.54924e-10, global = -1.97596e-20, cumulative = -1.63827e-18
DICPCG:  Solving for p, Initial residual = 0.000358933, Final residual = 9.62245e-07, No Iterations 316
time step continuity errors : sum local = 3.38098e-12, global = -8.90973e-21, cumulative = -1.64718e-18
DICPCG:  Solving for psi, Initial residual = 7.12931e-06, Final residual = 9.77358e-07, No Iterations 52
ExecutionTime = 13.13 s  ClockTime = 14 s

Time = 0.51

Courant Number mean: 0.0649425 max: 0.142218
smoothSolver:  Solving for Ux, Initial residual = 0.000210719, Final residual = 1.1231e-06, No Iterations 1
smoothSolver:  Solving for Uy, Initial residual = 0.000230192, Final residual = 1.19447e-06, No Iterations 1
DICPCG:  Solving for p, Initial residual = 0.00152649, Final residual = 7.44577e-05, No Iterations 80
time step continuity errors : sum local = 2.64034e-10, global = -3.15798e-20, cumulative = -1.67876e-18
DICPCG:  Solving for p, Initial residual = 0.000362151, Final residual = 9.97254e-07, No Iterations 316
time step continuity errors : sum local = 3.5033e-12, global = -2.11587e-20, cumulative = -1.69991e-18
DICPCG:  Solving for psi, Initial residual = 7.18399e-06, Final residual = 9.29911e-07, No Iterations 53
ExecutionTime = 13.38 s  ClockTime = 14 s

Time = 0.52

Courant Number mean: 0.0649436 max: 0.142214
smoothSolver:  Solving for Ux, Initial residual = 0.000210688, Final residual = 1.12297e-06, No Iterations 1
smoothSolver:  Solving for Uy, Initial residual = 0.000230166, Final residual = 1.19453e-06, No Iterations 1
DICPCG:  Solving for p, Initial residual = 0.00148669, Final residual = 7.11246e-05, No Iterations 83
time step continuity errors : sum local = 2.52187e-10, global = -3.89498e-21, cumulative = -1.70381e-18
DICPCG:  Solving for p, Initial residual = 0.000361042, Final residual = 9.16297e-07, No Iterations 316
time step continuity errors : sum local = 3.2172e-12, global = -1.66078e-20, cumulative = -1.72042e-18
DICPCG:  Solving for psi, Initial residual = 7.12341e-06, Final residual = 9.65901e-07, No Iterations 52
ExecutionTime = 13.62 s  ClockTime = 14 s

Time = 0.53

Courant Number mean: 0.0649447 max: 0.142211
smoothSolver:  Solving for Ux, Initial residual = 0.000210659, Final residual = 1.12283e-06, No Iterations 1
smoothSolver:  Solving for Uy, Initial residual = 0.000230138, Final residual = 1.19458e-06, No Iterations 1
DICPCG:  Solving for p, Initial residual = 0.00147619, Final residual = 7.14289e-05, No Iterations 83
time step continuity errors : sum local = 2.5317e-10, global = -1.33667e-20, cumulative = -1.73378e-18
DICPCG:  Solving for p, Initial residual = 0.000363135, Final residual = 9.24098e-07, No Iterations 316
time step continuity errors : sum local = 3.24354e-12, global = -1.71725e-20, cumulative = -1.75096e-18
DICPCG:  Solving for psi, Initial residual = 7.15985e-06, Final residual = 9.19186e-07, No Iterations 53
ExecutionTime = 13.87 s  ClockTime = 14 s

Time = 0.54

Courant Number mean: 0.0649459 max: 0.142214
smoothSolver:  Solving for Ux, Initial residual = 0.000210629, Final residual = 1.1227e-06, No Iterations 1
smoothSolver:  Solving for Uy, Initial residual = 0.00023011, Final residual = 1.19463e-06, No Iterations 1
DICPCG:  Solving for p, Initial residual = 0.00146109, Final residual = 7.11506e-05, No Iterations 83
time step continuity errors : sum local = 2.52117e-10, global = -1.0706e-20, cumulative = -1.76166e-18
DICPCG:  Solving for p, Initial residual = 0.000364463, Final residual = 9.15513e-07, No Iterations 316
time step continuity errors : sum local = 3.21235e-12, global = -4.17723e-20, cumulative = -1.80343e-18
DICPCG:  Solving for psi, Initial residual = 7.11509e-06, Final residual = 9.81123e-07, No Iterations 52
ExecutionTime = 14.11 s  ClockTime = 15 s

Time = 0.55

Courant Number mean: 0.0649471 max: 0.142216
smoothSolver:  Solving for Ux, Initial residual = 0.0002106, Final residual = 1.12257e-06, No Iterations 1
smoothSolver:  Solving for Uy, Initial residual = 0.000230081, Final residual = 1.19468e-06, No Iterations 1
DICPCG:  Solving for p, Initial residual = 0.00145359, Final residual = 6.90386e-05, No Iterations 84
time step continuity errors : sum local = 2.44612e-10, global = -2.59556e-20, cumulative = -1.82939e-18
DICPCG:  Solving for p, Initial residual = 0.000365747, Final residual = 9.01538e-07, No Iterations 316
time step continuity errors : sum local = 3.16206e-12, global = -1.19262e-20, cumulative = -1.84132e-18
DICPCG:  Solving for psi, Initial residual = 7.17372e-06, Final residual = 9.2694e-07, No Iterations 53
ExecutionTime = 14.36 s  ClockTime = 15 s

Time = 0.56

Courant Number mean: 0.0649484 max: 0.142218
smoothSolver:  Solving for Ux, Initial residual = 0.000210571, Final residual = 1.12244e-06, No Iterations 1
smoothSolver:  Solving for Uy, Initial residual = 0.000230051, Final residual = 1.19473e-06, No Iterations 1
DICPCG:  Solving for p, Initial residual = 0.00152247, Final residual = 7.49473e-05, No Iterations 80
time step continuity errors : sum local = 2.65309e-10, global = -2.41453e-20, cumulative = -1.86546e-18
DICPCG:  Solving for p, Initial residual = 0.000369014, Final residual = 9.83763e-07, No Iterations 316
time step continuity errors : sum local = 3.45023e-12, global = -1.47267e-20, cumulative = -1.88019e-18
DICPCG:  Solving for psi, Initial residual = 7.11771e-06, Final residual = 9.75106e-07, No Iterations 52
ExecutionTime = 14.59 s  ClockTime = 15 s

Time = 0.57

Courant Number mean: 0.0649497 max: 0.142219
smoothSolver:  Solving for Ux, Initial residual = 0.000210542, Final residual = 1.1223e-06, No Iterations 1
smoothSolver:  Solving for Uy, Initial residual = 0.000230021, Final residual = 1.19476e-06, No Iterations 1
DICPCG:  Solving for p, Initial residual = 0.00154385, Final residual = 7.52935e-05, No Iterations 81
time step continuity errors : sum local = 2.66453e-10, global = -2.25489e-20, cumulative = -1.90274e-18
DICPCG:  Solving for p, Initial residual = 0.000369847, Final residual = 9.63565e-07, No Iterations 316
time step continuity errors : sum local = 3.37829e-12, global = -3.09333e-20, cumulative = -1.93367e-18
DICPCG:  Solving for psi, Initial residual = 7.15818e-06, Final residual = 9.19504e-07, No Iterations 53
ExecutionTime = 14.83 s  ClockTime = 15 s

Time = 0.58

Courant Number mean: 0.0649509 max: 0.14222
smoothSolver:  Solving for Ux, Initial residual = 0.000210513, Final residual = 1.12217e-06, No Iterations 1
smoothSolver:  Solving for Uy, Initial residual = 0.000229993, Final residual = 1.19481e-06, No Iterations 1
DICPCG:  Solving for p, Initial residual = 0.00146266, Final residual = 7.20985e-05, No Iterations 83
time step continuity errors : sum local = 2.55116e-10, global = 2.49268e-21, cumulative = -1.93118e-18
DICPCG:  Solving for p, Initial residual = 0.000369213, Final residual = 9.06315e-07, No Iterations 316
time step continuity errors : sum local = 3.17592e-12, global = -1.2686e-20, cumulative = -1.94386e-18
DICPCG:  Solving for psi, Initial residual = 7.10317e-06, Final residual = 9.85847e-07, No Iterations 52
ExecutionTime = 15.07 s  ClockTime = 15 s

Time = 0.59

Courant Number mean: 0.0649523 max: 0.142221
smoothSolver:  Solving for Ux, Initial residual = 0.000210484, Final residual = 1.12204e-06, No Iterations 1
smoothSolver:  Solving for Uy, Initial residual = 0.000229963, Final residual = 1.19484e-06, No Iterations 1
DICPCG:  Solving for p, Initial residual = 0.00145726, Final residual = 7.16037e-05, No Iterations 83
time step continuity errors : sum local = 2.53308e-10, global = -1.71099e-20, cumulative = -1.96097e-18
DICPCG:  Solving for p, Initial residual = 0.000370579, Final residual = 9.04375e-07, No Iterations 316
time step continuity errors : sum local = 3.16841e-12, global = -3.31118e-21, cumulative = -1.96429e-18
DICPCG:  Solving for psi, Initial residual = 7.16486e-06, Final residual = 9.23342e-07, No Iterations 53
ExecutionTime = 15.31 s  ClockTime = 16 s

Time = 0.6

Courant Number mean: 0.0649536 max: 0.142222
smoothSolver:  Solving for Ux, Initial residual = 0.000210456, Final residual = 1.12192e-06, No Iterations 1
smoothSolver:  Solving for Uy, Initial residual = 0.000229934, Final residual = 1.19487e-06, No Iterations 1
DICPCG:  Solving for p, Initial residual = 0.0014935, Final residual = 7.21351e-05, No Iterations 80
time step continuity errors : sum local = 2.55151e-10, global = -1.08705e-20, cumulative = -1.97516e-18
DICPCG:  Solving for p, Initial residual = 0.000372767, Final residual = 9.60506e-07, No Iterations 316
time step continuity errors : sum local = 3.3644e-12, global = -1.37994e-20, cumulative = -1.98896e-18
DICPCG:  Solving for psi, Initial residual = 7.10944e-06, Final residual = 9.76079e-07, No Iterations 52
ExecutionTime = 15.55 s  ClockTime = 16 s

Time = 0.61

Courant Number mean: 0.0649549 max: 0.142223
smoothSolver:  Solving for Ux, Initial residual = 0.000210428, Final residual = 1.1218e-06, No Iterations 1
smoothSolver:  Solving for Uy, Initial residual = 0.000229903, Final residual = 1.1949e-06, No Iterations 1
DICPCG:  Solving for p, Initial residual = 0.00149734, Final residual = 7.42014e-05, No Iterations 80
time step continuity errors : sum local = 2.62315e-10, global = 8.82545e-21, cumulative = -1.98013e-18
DICPCG:  Solving for p, Initial residual = 0.000374927, Final residual = 9.67471e-07, No Iterations 316
time step continuity errors : sum local = 3.38789e-12, global = -2.01532e-20, cumulative = -2.00028e-18
DICPCG:  Solving for psi, Initial residual = 7.15644e-06, Final residual = 9.16903e-07, No Iterations 53
ExecutionTime = 15.79 s  ClockTime = 16 s

Time = 0.62

Courant Number mean: 0.0649563 max: 0.142223
smoothSolver:  Solving for Ux, Initial residual = 0.000210399, Final residual = 1.12168e-06, No Iterations 1
smoothSolver:  Solving for Uy, Initial residual = 0.000229876, Final residual = 1.19495e-06, No Iterations 1
DICPCG:  Solving for p, Initial residual = 0.00144527, Final residual = 6.93989e-05, No Iterations 84
time step continuity errors : sum local = 2.45344e-10, global = -1.77638e-20, cumulative = -2.01805e-18
DICPCG:  Solving for p, Initial residual = 0.000373646, Final residual = 8.79363e-07, No Iterations 316
time step continuity errors : sum local = 3.07739e-12, global = -4.12001e-20, cumulative = -2.05925e-18
DICPCG:  Solving for psi, Initial residual = 7.09781e-06, Final residual = 9.79845e-07, No Iterations 52
ExecutionTime = 16.02 s  ClockTime = 16 s

Time = 0.63

Courant Number mean: 0.0649577 max: 0.142223
smoothSolver:  Solving for Ux, Initial residual = 0.000210371, Final residual = 1.12156e-06, No Iterations 1
smoothSolver:  Solving for Uy, Initial residual = 0.000229847, Final residual = 1.19498e-06, No Iterations 1
DICPCG:  Solving for p, Initial residual = 0.00144113, Final residual = 7.01315e-05, No Iterations 84
time step continuity errors : sum local = 2.47821e-10, global = -3.54951e-20, cumulative = -2.09474e-18
DICPCG:  Solving for p, Initial residual = 0.000375272, Final residual = 8.74939e-07, No Iterations 316
time step continuity errors : sum local = 3.06089e-12, global = -2.61816e-20, cumulative = -2.12092e-18
DICPCG:  Solving for psi, Initial residual = 7.14824e-06, Final residual = 9.12828e-07, No Iterations 53
ExecutionTime = 16.27 s  ClockTime = 17 s

Time = 0.64

Courant Number mean: 0.0649592 max: 0.142222
smoothSolver:  Solving for Ux, Initial residual = 0.000210343, Final residual = 1.12144e-06, No Iterations 1
smoothSolver:  Solving for Uy, Initial residual = 0.000229817, Final residual = 1.19501e-06, No Iterations 1
DICPCG:  Solving for p, Initial residual = 0.00143614, Final residual = 7.12604e-05, No Iterations 83
time step continuity errors : sum local = 2.51715e-10, global = 1.16631e-21, cumulative = -2.11976e-18
DICPCG:  Solving for p, Initial residual = 0.000377574, Final residual = 8.91318e-07, No Iterations 316
time step continuity errors : sum local = 3.11747e-12, global = 1.88805e-21, cumulative = -2.11787e-18
DICPCG:  Solving for psi, Initial residual = 7.08272e-06, Final residual = 9.76966e-07, No Iterations 52
ExecutionTime = 16.51 s  ClockTime = 17 s

Time = 0.65

Courant Number mean: 0.0649606 max: 0.142221
smoothSolver:  Solving for Ux, Initial residual = 0.000210314, Final residual = 1.12131e-06, No Iterations 1
smoothSolver:  Solving for Uy, Initial residual = 0.000229787, Final residual = 1.19505e-06, No Iterations 1
DICPCG:  Solving for p, Initial residual = 0.00146606, Final residual = 6.89974e-05, No Iterations 83
time step continuity errors : sum local = 2.43737e-10, global = -2.36017e-20, cumulative = -2.14147e-18
DICPCG:  Solving for p, Initial residual = 0.000377146, Final residual = 8.99857e-07, No Iterations 316
time step continuity errors : sum local = 3.14632e-12, global = -3.85929e-20, cumulative = -2.18006e-18
DICPCG:  Solving for psi, Initial residual = 7.1441e-06, Final residual = 9.17783e-07, No Iterations 53
ExecutionTime = 16.75 s  ClockTime = 17 s

Time = 0.66

Courant Number mean: 0.064962 max: 0.14222
smoothSolver:  Solving for Ux, Initial residual = 0.000210287, Final residual = 1.12119e-06, No Iterations 1
smoothSolver:  Solving for Uy, Initial residual = 0.000229757, Final residual = 1.19507e-06, No Iterations 1
DICPCG:  Solving for p, Initial residual = 0.00149836, Final residual = 7.4769e-05, No Iterations 82
time step continuity errors : sum local = 2.63842e-10, global = -5.12421e-20, cumulative = -2.23131e-18
DICPCG:  Solving for p, Initial residual = 0.000381126, Final residual = 9.14975e-07, No Iterations 316
time step continuity errors : sum local = 3.19852e-12, global = 2.14515e-21, cumulative = -2.22916e-18
DICPCG:  Solving for psi, Initial residual = 7.09389e-06, Final residual = 9.67595e-07, No Iterations 52
ExecutionTime = 16.99 s  ClockTime = 17 s

Time = 0.67

Courant Number mean: 0.0649635 max: 0.142219
smoothSolver:  Solving for Ux, Initial residual = 0.000210258, Final residual = 1.12107e-06, No Iterations 1
smoothSolver:  Solving for Uy, Initial residual = 0.000229725, Final residual = 1.1951e-06, No Iterations 1
DICPCG:  Solving for p, Initial residual = 0.00147542, Final residual = 7.37062e-05, No Iterations 80
time step continuity errors : sum local = 2.60086e-10, global = -1.07659e-20, cumulative = -2.23993e-18
DICPCG:  Solving for p, Initial residual = 0.000382366, Final residual = 9.60832e-07, No Iterations 316
time step continuity errors : sum local = 3.35797e-12, global = -1.50523e-20, cumulative = -2.25498e-18
DICPCG:  Solving for psi, Initial residual = 7.13713e-06, Final residual = 9.13082e-07, No Iterations 53
ExecutionTime = 17.23 s  ClockTime = 18 s

Time = 0.68

Courant Number mean: 0.064965 max: 0.142217
smoothSolver:  Solving for Ux, Initial residual = 0.000210229, Final residual = 1.12094e-06, No Iterations 1
smoothSolver:  Solving for Uy, Initial residual = 0.000229696, Final residual = 1.19512e-06, No Iterations 1
DICPCG:  Solving for p, Initial residual = 0.00145933, Final residual = 7.0865e-05, No Iterations 83
time step continuity errors : sum local = 2.50028e-10, global = -3.1033e-20, cumulative = -2.28601e-18
DICPCG:  Solving for p, Initial residual = 0.000382065, Final residual = 9.92103e-07, No Iterations 315
time step continuity errors : sum local = 3.4646e-12, global = -2.1277e-20, cumulative = -2.30729e-18
DICPCG:  Solving for psi, Initial residual = 7.07381e-06, Final residual = 9.78518e-07, No Iterations 52
ExecutionTime = 17.49 s  ClockTime = 18 s

Time = 0.69

Courant Number mean: 0.0649665 max: 0.142216
smoothSolver:  Solving for Ux, Initial residual = 0.000210201, Final residual = 1.12081e-06, No Iterations 1
smoothSolver:  Solving for Uy, Initial residual = 0.000229666, Final residual = 1.19515e-06, No Iterations 1
DICPCG:  Solving for p, Initial residual = 0.00146826, Final residual = 6.98658e-05, No Iterations 83
time step continuity errors : sum local = 2.46459e-10, global = -3.89998e-20, cumulative = -2.34629e-18
DICPCG:  Solving for p, Initial residual = 0.00038263, Final residual = 9.99884e-07, No Iterations 315
time step continuity errors : sum local = 3.4904e-12, global = -2.21056e-20, cumulative = -2.36839e-18
DICPCG:  Solving for psi, Initial residual = 7.12917e-06, Final residual = 9.0657e-07, No Iterations 53
ExecutionTime = 17.72 s  ClockTime = 18 s

Time = 0.7

Courant Number mean: 0.064968 max: 0.142213
smoothSolver:  Solving for Ux, Initial residual = 0.000210172, Final residual = 1.12069e-06, No Iterations 1
smoothSolver:  Solving for Uy, Initial residual = 0.000229636, Final residual = 1.19517e-06, No Iterations 1
DICPCG:  Solving for p, Initial residual = 0.00153549, Final residual = 7.64715e-05, No Iterations 80
time step continuity errors : sum local = 2.6948e-10, global = -2.35401e-20, cumulative = -2.39193e-18
DICPCG:  Solving for p, Initial residual = 0.000387851, Final residual = 9.59546e-07, No Iterations 316
time step continuity errors : sum local = 3.35071e-12, global = -9.28639e-21, cumulative = -2.40122e-18
DICPCG:  Solving for psi, Initial residual = 7.07422e-06, Final residual = 9.63891e-07, No Iterations 52
ExecutionTime = 17.97 s  ClockTime = 18 s

Time = 0.71

Courant Number mean: 0.0649695 max: 0.142211
smoothSolver:  Solving for Ux, Initial residual = 0.000210144, Final residual = 1.12056e-06, No Iterations 1
smoothSolver:  Solving for Uy, Initial residual = 0.000229604, Final residual = 1.19517e-06, No Iterations 1
DICPCG:  Solving for p, Initial residual = 0.0015295, Final residual = 7.55977e-05, No Iterations 80
time step continuity errors : sum local = 2.66363e-10, global = -2.12238e-20, cumulative = -2.42244e-18
DICPCG:  Solving for p, Initial residual = 0.000387922, Final residual = 9.48871e-07, No Iterations 316
time step continuity errors : sum local = 3.31181e-12, global = -2.01172e-20, cumulative = -2.44256e-18
DICPCG:  Solving for psi, Initial residual = 7.12254e-06, Final residual = 8.91156e-07, No Iterations 53
ExecutionTime = 18.21 s  ClockTime = 19 s

Time = 0.72

Courant Number mean: 0.064971 max: 0.142208
smoothSolver:  Solving for Ux, Initial residual = 0.000210115, Final residual = 1.12042e-06, No Iterations 1
smoothSolver:  Solving for Uy, Initial residual = 0.000229575, Final residual = 1.1952e-06, No Iterations 1
DICPCG:  Solving for p, Initial residual = 0.0014476, Final residual = 7.11096e-05, No Iterations 84
time step continuity errors : sum local = 2.50532e-10, global = -2.79684e-20, cumulative = -2.47053e-18
DICPCG:  Solving for p, Initial residual = 0.00038719, Final residual = 9.85253e-07, No Iterations 315
time step continuity errors : sum local = 3.43567e-12, global = -3.49291e-20, cumulative = -2.50546e-18
DICPCG:  Solving for psi, Initial residual = 7.06226e-06, Final residual = 9.72391e-07, No Iterations 52
ExecutionTime = 18.45 s  ClockTime = 19 s

Time = 0.73

Courant Number mean: 0.0649725 max: 0.142205
smoothSolver:  Solving for Ux, Initial residual = 0.000210086, Final residual = 1.12029e-06, No Iterations 1
smoothSolver:  Solving for Uy, Initial residual = 0.000229544, Final residual = 1.1952e-06, No Iterations 1
DICPCG:  Solving for p, Initial residual = 0.00144294, Final residual = 7.1765e-05, No Iterations 84
time step continuity errors : sum local = 2.52726e-10, global = -1.90951e-20, cumulative = -2.52455e-18
DICPCG:  Solving for p, Initial residual = 0.000388428, Final residual = 9.77084e-07, No Iterations 315
time step continuity errors : sum local = 3.40591e-12, global = -1.11774e-20, cumulative = -2.53573e-18
DICPCG:  Solving for psi, Initial residual = 7.12675e-06, Final residual = 9.17837e-07, No Iterations 53
ExecutionTime = 18.7 s  ClockTime = 19 s

Time = 0.74

Courant Number mean: 0.0649741 max: 0.142202
smoothSolver:  Solving for Ux, Initial residual = 0.000210058, Final residual = 1.12016e-06, No Iterations 1
smoothSolver:  Solving for Uy, Initial residual = 0.000229513, Final residual = 1.19521e-06, No Iterations 1
DICPCG:  Solving for p, Initial residual = 0.00146364, Final residual = 7.12329e-05, No Iterations 83
time step continuity errors : sum local = 2.50822e-10, global = -3.02555e-20, cumulative = -2.56599e-18
DICPCG:  Solving for p, Initial residual = 0.000388697, Final residual = 9.9694e-07, No Iterations 315
time step continuity errors : sum local = 3.47445e-12, global = -1.81189e-20, cumulative = -2.58411e-18
DICPCG:  Solving for psi, Initial residual = 7.0712e-06, Final residual = 9.67218e-07, No Iterations 52
ExecutionTime = 18.94 s  ClockTime = 19 s

Time = 0.75

Courant Number mean: 0.0649756 max: 0.142198
smoothSolver:  Solving for Ux, Initial residual = 0.000210029, Final residual = 1.12002e-06, No Iterations 1
smoothSolver:  Solving for Uy, Initial residual = 0.000229481, Final residual = 1.19521e-06, No Iterations 1
DICPCG:  Solving for p, Initial residual = 0.00152098, Final residual = 7.51626e-05, No Iterations 80
time step continuity errors : sum local = 2.64486e-10, global = -3.20331e-20, cumulative = -2.61614e-18
DICPCG:  Solving for p, Initial residual = 0.000393444, Final residual = 9.45629e-07, No Iterations 316
time step continuity errors : sum local = 3.29634e-12, global = -2.84383e-20, cumulative = -2.64458e-18
DICPCG:  Solving for psi, Initial residual = 7.11484e-06, Final residual = 9.17706e-07, No Iterations 53
ExecutionTime = 19.18 s  ClockTime = 20 s

Time = 0.76

Courant Number mean: 0.0649772 max: 0.142195
smoothSolver:  Solving for Ux, Initial residual = 0.00021, Final residual = 1.11989e-06, No Iterations 1
smoothSolver:  Solving for Uy, Initial residual = 0.000229449, Final residual = 1.19521e-06, No Iterations 1
DICPCG:  Solving for p, Initial residual = 0.00150094, Final residual = 7.31714e-05, No Iterations 80
time step continuity errors : sum local = 2.57485e-10, global = -2.64876e-20, cumulative = -2.67106e-18
DICPCG:  Solving for p, Initial residual = 0.000394153, Final residual = 9.48769e-07, No Iterations 316
time step continuity errors : sum local = 3.30601e-12, global = 1.72725e-22, cumulative = -2.67089e-18
DICPCG:  Solving for psi, Initial residual = 7.06624e-06, Final residual = 9.62619e-07, No Iterations 52
ExecutionTime = 19.42 s  ClockTime = 20 s

Time = 0.77

Courant Number mean: 0.0649787 max: 0.14219
smoothSolver:  Solving for Ux, Initial residual = 0.000209972, Final residual = 1.11974e-06, No Iterations 1
smoothSolver:  Solving for Uy, Initial residual = 0.000229419, Final residual = 1.19522e-06, No Iterations 1
DICPCG:  Solving for p, Initial residual = 0.00144586, Final residual = 7.10229e-05, No Iterations 83
time step continuity errors : sum local = 2.49852e-10, global = -4.12196e-20, cumulative = -2.71211e-18
DICPCG:  Solving for p, Initial residual = 0.000393617, Final residual = 9.71667e-07, No Iterations 315
time step continuity errors : sum local = 3.38298e-12, global = -2.48898e-20, cumulative = -2.737e-18
DICPCG:  Solving for psi, Initial residual = 7.1116e-06, Final residual = 8.65765e-07, No Iterations 53
ExecutionTime = 19.67 s  ClockTime = 20 s

Time = 0.78

Courant Number mean: 0.0649803 max: 0.142186
smoothSolver:  Solving for Ux, Initial residual = 0.000209944, Final residual = 1.1196e-06, No Iterations 1
smoothSolver:  Solving for Uy, Initial residual = 0.000229388, Final residual = 1.19521e-06, No Iterations 1
DICPCG:  Solving for p, Initial residual = 0.00144493, Final residual = 7.15723e-05, No Iterations 83
time step continuity errors : sum local = 2.51681e-10, global = 2.87991e-21, cumulative = -2.73412e-18
DICPCG:  Solving for p, Initial residual = 0.000395023, Final residual = 9.78855e-07, No Iterations 315
time step continuity errors : sum local = 3.4068e-12, global = -2.44326e-20, cumulative = -2.75855e-18
DICPCG:  Solving for psi, Initial residual = 7.03828e-06, Final residual = 9.6319e-07, No Iterations 52
ExecutionTime = 19.9 s  ClockTime = 20 s

Time = 0.79

Courant Number mean: 0.0649819 max: 0.142181
smoothSolver:  Solving for Ux, Initial residual = 0.000209916, Final residual = 1.11946e-06, No Iterations 1
smoothSolver:  Solving for Uy, Initial residual = 0.000229358, Final residual = 1.1952e-06, No Iterations 1
DICPCG:  Solving for p, Initial residual = 0.00145174, Final residual = 7.12418e-05, No Iterations 83
time step continuity errors : sum local = 2.5045e-10, global = -2.66813e-20, cumulative = -2.78524e-18
DICPCG:  Solving for p, Initial residual = 0.000396016, Final residual = 9.70387e-07, No Iterations 315
time step continuity errors : sum local = 3.37625e-12, global = -2.1228e-20, cumulative = -2.80646e-18
DICPCG:  Solving for psi, Initial residual = 7.10157e-06, Final residual = 9.11454e-07, No Iterations 53
ExecutionTime = 20.14 s  ClockTime = 21 s

Time = 0.8

Courant Number mean: 0.0649834 max: 0.142176
smoothSolver:  Solving for Ux, Initial residual = 0.000209889, Final residual = 1.11932e-06, No Iterations 1
smoothSolver:  Solving for Uy, Initial residual = 0.000229327, Final residual = 1.19518e-06, No Iterations 1
DICPCG:  Solving for p, Initial residual = 0.00145173, Final residual = 7.17417e-05, No Iterations 83
time step continuity errors : sum local = 2.52107e-10, global = -1.60093e-20, cumulative = -2.82247e-18
DICPCG:  Solving for p, Initial residual = 0.000397548, Final residual = 9.73891e-07, No Iterations 315
time step continuity errors : sum local = 3.38728e-12, global = 5.85095e-21, cumulative = -2.81662e-18
DICPCG:  Solving for psi, Initial residual = 7.05018e-06, Final residual = 9.59839e-07, No Iterations 52
ExecutionTime = 20.38 s  ClockTime = 21 s

Time = 0.81

Courant Number mean: 0.064985 max: 0.142171
smoothSolver:  Solving for Ux, Initial residual = 0.000209863, Final residual = 1.11917e-06, No Iterations 1
smoothSolver:  Solving for Uy, Initial residual = 0.000229296, Final residual = 1.19517e-06, No Iterations 1
DICPCG:  Solving for p, Initial residual = 0.00145657, Final residual = 7.15944e-05, No Iterations 83
time step continuity errors : sum local = 2.51516e-10, global = -4.27441e-21, cumulative = -2.8209e-18
DICPCG:  Solving for p, Initial residual = 0.000398513, Final residual = 9.70564e-07, No Iterations 315
time step continuity errors : sum local = 3.3746e-12, global = -1.87129e-20, cumulative = -2.83961e-18
DICPCG:  Solving for psi, Initial residual = 7.10021e-06, Final residual = 9.0841e-07, No Iterations 53
ExecutionTime = 20.62 s  ClockTime = 21 s

Time = 0.82

Courant Number mean: 0.0649866 max: 0.142165
smoothSolver:  Solving for Ux, Initial residual = 0.000209837, Final residual = 1.11903e-06, No Iterations 1
smoothSolver:  Solving for Uy, Initial residual = 0.000229264, Final residual = 1.19515e-06, No Iterations 1
DICPCG:  Solving for p, Initial residual = 0.00145597, Final residual = 7.19994e-05, No Iterations 83
time step continuity errors : sum local = 2.52839e-10, global = -2.06383e-20, cumulative = -2.86025e-18
DICPCG:  Solving for p, Initial residual = 0.000400264, Final residual = 9.67842e-07, No Iterations 315
time step continuity errors : sum local = 3.36402e-12, global = -6.07646e-21, cumulative = -2.86632e-18
DICPCG:  Solving for psi, Initial residual = 7.05543e-06, Final residual = 9.48056e-07, No Iterations 52
ExecutionTime = 20.87 s  ClockTime = 21 s

Time = 0.83

Courant Number mean: 0.0649882 max: 0.14216
smoothSolver:  Solving for Ux, Initial residual = 0.000209811, Final residual = 1.11889e-06, No Iterations 1
smoothSolver:  Solving for Uy, Initial residual = 0.000229232, Final residual = 1.19512e-06, No Iterations 1
DICPCG:  Solving for p, Initial residual = 0.00147511, Final residual = 7.05661e-05, No Iterations 83
time step continuity errors : sum local = 2.47783e-10, global = -6.8786e-21, cumulative = -2.8732e-18
DICPCG:  Solving for p, Initial residual = 0.000399297, Final residual = 9.67833e-07, No Iterations 315
time step continuity errors : sum local = 3.36285e-12, global = -3.80438e-20, cumulative = -2.91125e-18
DICPCG:  Solving for psi, Initial residual = 7.09293e-06, Final residual = 8.85634e-07, No Iterations 53
ExecutionTime = 21.11 s  ClockTime = 22 s

Time = 0.84

Courant Number mean: 0.0649899 max: 0.142154
smoothSolver:  Solving for Ux, Initial residual = 0.000209785, Final residual = 1.11875e-06, No Iterations 1
smoothSolver:  Solving for Uy, Initial residual = 0.000229199, Final residual = 1.1951e-06, No Iterations 1
DICPCG:  Solving for p, Initial residual = 0.00157249, Final residual = 7.65554e-05, No Iterations 80
time step continuity errors : sum local = 2.68533e-10, global = 4.30117e-21, cumulative = -2.90695e-18
DICPCG:  Solving for p, Initial residual = 0.000403697, Final residual = 9.2276e-07, No Iterations 316
time step continuity errors : sum local = 3.20693e-12, global = -3.73441e-20, cumulative = -2.94429e-18
DICPCG:  Solving for psi, Initial residual = 7.03369e-06, Final residual = 9.69867e-07, No Iterations 52
ExecutionTime = 21.35 s  ClockTime = 22 s

Time = 0.85

Courant Number mean: 0.0649916 max: 0.142153
smoothSolver:  Solving for Ux, Initial residual = 0.000209758, Final residual = 1.11861e-06, No Iterations 1
smoothSolver:  Solving for Uy, Initial residual = 0.000229164, Final residual = 1.19507e-06, No Iterations 1
DICPCG:  Solving for p, Initial residual = 0.00158155, Final residual = 7.76535e-05, No Iterations 80
time step continuity errors : sum local = 2.72296e-10, global = -1.76206e-20, cumulative = -2.96191e-18
DICPCG:  Solving for p, Initial residual = 0.000406336, Final residual = 9.30304e-07, No Iterations 316
time step continuity errors : sum local = 3.23221e-12, global = -5.72767e-21, cumulative = -2.96764e-18
DICPCG:  Solving for psi, Initial residual = 7.09749e-06, Final residual = 8.97829e-07, No Iterations 53
ExecutionTime = 21.6 s  ClockTime = 22 s

Time = 0.86

Courant Number mean: 0.0649934 max: 0.142153
smoothSolver:  Solving for Ux, Initial residual = 0.000209732, Final residual = 1.11849e-06, No Iterations 1
smoothSolver:  Solving for Uy, Initial residual = 0.000229136, Final residual = 1.19506e-06, No Iterations 1
DICPCG:  Solving for p, Initial residual = 0.00153151, Final residual = 7.50224e-05, No Iterations 80
time step continuity errors : sum local = 2.63046e-10, global = -1.17293e-20, cumulative = -2.97937e-18
DICPCG:  Solving for p, Initial residual = 0.000406493, Final residual = 9.15693e-07, No Iterations 316
time step continuity errors : sum local = 3.1801e-12, global = -2.14246e-20, cumulative = -3.00079e-18
DICPCG:  Solving for psi, Initial residual = 7.02934e-06, Final residual = 9.63403e-07, No Iterations 52
ExecutionTime = 21.84 s  ClockTime = 22 s

Time = 0.87

Courant Number mean: 0.0649952 max: 0.142153
smoothSolver:  Solving for Ux, Initial residual = 0.000209706, Final residual = 1.11836e-06, No Iterations 1
smoothSolver:  Solving for Uy, Initial residual = 0.000229103, Final residual = 1.19503e-06, No Iterations 1
DICPCG:  Solving for p, Initial residual = 0.00153025, Final residual = 7.51621e-05, No Iterations 80
time step continuity errors : sum local = 2.63461e-10, global = -6.38882e-21, cumulative = -3.00718e-18
DICPCG:  Solving for p, Initial residual = 0.000407472, Final residual = 9.219e-07, No Iterations 316
time step continuity errors : sum local = 3.20075e-12, global = -2.83971e-21, cumulative = -3.01002e-18
DICPCG:  Solving for psi, Initial residual = 7.08996e-06, Final residual = 9.16794e-07, No Iterations 53
ExecutionTime = 22.09 s  ClockTime = 22 s

Time = 0.88

Courant Number mean: 0.064997 max: 0.142153
smoothSolver:  Solving for Ux, Initial residual = 0.00020968, Final residual = 1.11823e-06, No Iterations 1
smoothSolver:  Solving for Uy, Initial residual = 0.000229071, Final residual = 1.195e-06, No Iterations 1
DICPCG:  Solving for p, Initial residual = 0.00148002, Final residual = 7.04402e-05, No Iterations 83
time step continuity errors : sum local = 2.46955e-10, global = 1.11605e-21, cumulative = -3.0089e-18
DICPCG:  Solving for p, Initial residual = 0.000405733, Final residual = 9.62575e-07, No Iterations 315
time step continuity errors : sum local = 3.33892e-12, global = -8.89429e-21, cumulative = -3.0178e-18
DICPCG:  Solving for psi, Initial residual = 7.04422e-06, Final residual = 9.56497e-07, No Iterations 52
ExecutionTime = 22.33 s  ClockTime = 23 s

Time = 0.89

Courant Number mean: 0.0649988 max: 0.142152
smoothSolver:  Solving for Ux, Initial residual = 0.000209654, Final residual = 1.11811e-06, No Iterations 1
smoothSolver:  Solving for Uy, Initial residual = 0.000229039, Final residual = 1.19497e-06, No Iterations 1
DICPCG:  Solving for p, Initial residual = 0.00159444, Final residual = 7.69259e-05, No Iterations 80
time step continuity errors : sum local = 2.69382e-10, global = 1.03919e-20, cumulative = -3.00741e-18
DICPCG:  Solving for p, Initial residual = 0.00041045, Final residual = 9.24557e-07, No Iterations 316
time step continuity errors : sum local = 3.20782e-12, global = -6.63096e-21, cumulative = -3.01404e-18
DICPCG:  Solving for psi, Initial residual = 7.08494e-06, Final residual = 9.10463e-07, No Iterations 53
ExecutionTime = 22.58 s  ClockTime = 23 s

Time = 0.9

Courant Number mean: 0.0650006 max: 0.142151
smoothSolver:  Solving for Ux, Initial residual = 0.000209627, Final residual = 1.11798e-06, No Iterations 1
smoothSolver:  Solving for Uy, Initial residual = 0.000229004, Final residual = 1.19493e-06, No Iterations 1
DICPCG:  Solving for p, Initial residual = 0.00162837, Final residual = 7.5331e-05, No Iterations 81
time step continuity errors : sum local = 2.63792e-10, global = -1.94745e-20, cumulative = -3.03351e-18
DICPCG:  Solving for p, Initial residual = 0.000411576, Final residual = 8.93484e-07, No Iterations 316
time step continuity errors : sum local = 3.09875e-12, global = -8.626e-21, cumulative = -3.04214e-18
DICPCG:  Solving for psi, Initial residual = 7.03735e-06, Final residual = 9.50317e-07, No Iterations 52
ExecutionTime = 22.82 s  ClockTime = 23 s

Time = 0.91

Courant Number mean: 0.0650024 max: 0.14215
smoothSolver:  Solving for Ux, Initial residual = 0.000209601, Final residual = 1.11786e-06, No Iterations 1
smoothSolver:  Solving for Uy, Initial residual = 0.000228975, Final residual = 1.19491e-06, No Iterations 1
DICPCG:  Solving for p, Initial residual = 0.00161728, Final residual = 7.84569e-05, No Iterations 80
time step continuity errors : sum local = 2.74497e-10, global = -1.80293e-20, cumulative = -3.06017e-18
DICPCG:  Solving for p, Initial residual = 0.000415765, Final residual = 9.39439e-07, No Iterations 316
time step continuity errors : sum local = 3.25725e-12, global = -2.15241e-20, cumulative = -3.08169e-18
DICPCG:  Solving for psi, Initial residual = 7.07621e-06, Final residual = 8.98386e-07, No Iterations 53
ExecutionTime = 23.06 s  ClockTime = 23 s

Time = 0.92

Courant Number mean: 0.0650043 max: 0.142148
smoothSolver:  Solving for Ux, Initial residual = 0.000209575, Final residual = 1.11773e-06, No Iterations 1
smoothSolver:  Solving for Uy, Initial residual = 0.00022894, Final residual = 1.19488e-06, No Iterations 1
DICPCG:  Solving for p, Initial residual = 0.00159916, Final residual = 7.49238e-05, No Iterations 81
time step continuity errors : sum local = 2.62216e-10, global = -4.04078e-20, cumulative = -3.1221e-18
DICPCG:  Solving for p, Initial residual = 0.000413679, Final residual = 8.95507e-07, No Iterations 316
time step continuity errors : sum local = 3.10364e-12, global = 2.22887e-21, cumulative = -3.11987e-18
DICPCG:  Solving for psi, Initial residual = 7.01937e-06, Final residual = 9.54347e-07, No Iterations 52
ExecutionTime = 23.3 s  ClockTime = 24 s

Time = 0.93

Courant Number mean: 0.0650061 max: 0.142147
smoothSolver:  Solving for Ux, Initial residual = 0.000209549, Final residual = 1.11761e-06, No Iterations 1
smoothSolver:  Solving for Uy, Initial residual = 0.000228908, Final residual = 1.19483e-06, No Iterations 1
DICPCG:  Solving for p, Initial residual = 0.00149057, Final residual = 7.03414e-05, No Iterations 83
time step continuity errors : sum local = 2.46204e-10, global = -1.3992e-22, cumulative = -3.12001e-18
DICPCG:  Solving for p, Initial residual = 0.000413747, Final residual = 9.50094e-07, No Iterations 315
time step continuity errors : sum local = 3.29006e-12, global = -3.05044e-20, cumulative = -3.15051e-18
DICPCG:  Solving for psi, Initial residual = 7.07692e-06, Final residual = 8.92182e-07, No Iterations 53
ExecutionTime = 23.55 s  ClockTime = 24 s

Time = 0.94

Courant Number mean: 0.065008 max: 0.142145
smoothSolver:  Solving for Ux, Initial residual = 0.000209523, Final residual = 1.11749e-06, No Iterations 1
smoothSolver:  Solving for Uy, Initial residual = 0.000228873, Final residual = 1.19479e-06, No Iterations 1
DICPCG:  Solving for p, Initial residual = 0.00147039, Final residual = 7.08849e-05, No Iterations 83
time step continuity errors : sum local = 2.48005e-10, global = -5.03451e-21, cumulative = -3.15555e-18
DICPCG:  Solving for p, Initial residual = 0.000415349, Final residual = 9.50801e-07, No Iterations 315
time step continuity errors : sum local = 3.29141e-12, global = -3.21949e-20, cumulative = -3.18774e-18
[...]
DICPCG:  Solving for p, Initial residual = 0.00100802, Final residual = 4.89468e-05, No Iterations 62
time step continuity errors : sum local = 1.1752e-10, global = -7.18264e-21, cumulative = -6.7345e-17
DICPCG:  Solving for p, Initial residual = 0.000491303, Final residual = 9.69134e-07, No Iterations 294
time step continuity errors : sum local = 2.30602e-12, global = -1.84761e-20, cumulative = -6.73635e-17
DICPCG:  Solving for psi, Initial residual = 4.38453e-06, Final residual = 8.80959e-07, No Iterations 42
ExecutionTime = 485.63 s  ClockTime = 486 s

Time = 19.78

Courant Number mean: 0.063637 max: 0.123588
smoothSolver:  Solving for Ux, Initial residual = 0.000100298, Final residual = 5.2759e-07, No Iterations 1
smoothSolver:  Solving for Uy, Initial residual = 0.000102454, Final residual = 4.8906e-07, No Iterations 1
DICPCG:  Solving for p, Initial residual = 0.00101172, Final residual = 4.93517e-05, No Iterations 62
time step continuity errors : sum local = 1.18464e-10, global = 4.41821e-22, cumulative = -6.73631e-17
DICPCG:  Solving for p, Initial residual = 0.00049123, Final residual = 9.76177e-07, No Iterations 293
time step continuity errors : sum local = 2.32304e-12, global = -3.62391e-20, cumulative = -6.73993e-17
DICPCG:  Solving for psi, Initial residual = 4.3209e-06, Final residual = 8.10913e-07, No Iterations 43
ExecutionTime = 485.87 s  ClockTime = 487 s

Time = 19.79

Courant Number mean: 0.063636 max: 0.123604
smoothSolver:  Solving for Ux, Initial residual = 0.000100206, Final residual = 5.27066e-07, No Iterations 1
smoothSolver:  Solving for Uy, Initial residual = 0.0001024, Final residual = 4.88864e-07, No Iterations 1
DICPCG:  Solving for p, Initial residual = 0.000983008, Final residual = 4.78104e-05, No Iterations 63
time step continuity errors : sum local = 1.14789e-10, global = -4.47479e-21, cumulative = -6.74038e-17
DICPCG:  Solving for p, Initial residual = 0.00048937, Final residual = 9.56623e-07, No Iterations 294
time step continuity errors : sum local = 2.2757e-12, global = 8.54217e-21, cumulative = -6.73952e-17
DICPCG:  Solving for psi, Initial residual = 4.28588e-06, Final residual = 8.96472e-07, No Iterations 42
ExecutionTime = 486.12 s  ClockTime = 487 s

Time = 19.8

Courant Number mean: 0.0636351 max: 0.12362
smoothSolver:  Solving for Ux, Initial residual = 0.000100114, Final residual = 5.26539e-07, No Iterations 1
smoothSolver:  Solving for Uy, Initial residual = 0.000102346, Final residual = 4.88671e-07, No Iterations 1
DICPCG:  Solving for p, Initial residual = 0.000981715, Final residual = 4.77688e-05, No Iterations 63
time step continuity errors : sum local = 1.14671e-10, global = -2.61812e-20, cumulative = -6.74214e-17
DICPCG:  Solving for p, Initial residual = 0.000489226, Final residual = 9.28545e-07, No Iterations 294
time step continuity errors : sum local = 2.20855e-12, global = -5.28581e-21, cumulative = -6.74267e-17
DICPCG:  Solving for psi, Initial residual = 4.31466e-06, Final residual = 9.62127e-07, No Iterations 42
ExecutionTime = 486.37 s  ClockTime = 487 s

Time = 19.81

Courant Number mean: 0.0636341 max: 0.123636
smoothSolver:  Solving for Ux, Initial residual = 0.000100021, Final residual = 5.26011e-07, No Iterations 1
smoothSolver:  Solving for Uy, Initial residual = 0.000102292, Final residual = 4.88476e-07, No Iterations 1
DICPCG:  Solving for p, Initial residual = 0.000980696, Final residual = 4.76596e-05, No Iterations 63
time step continuity errors : sum local = 1.14393e-10, global = -2.22131e-20, cumulative = -6.74489e-17
DICPCG:  Solving for p, Initial residual = 0.000489072, Final residual = 9.60007e-07, No Iterations 292
time step continuity errors : sum local = 2.28463e-12, global = -1.9725e-20, cumulative = -6.74686e-17
DICPCG:  Solving for psi, Initial residual = 4.38339e-06, Final residual = 8.82814e-07, No Iterations 42
ExecutionTime = 486.62 s  ClockTime = 487 s

Time = 19.82

Courant Number mean: 0.0636332 max: 0.123652
smoothSolver:  Solving for Ux, Initial residual = 9.9929e-05, Final residual = 5.25483e-07, No Iterations 1
smoothSolver:  Solving for Uy, Initial residual = 0.000102238, Final residual = 4.88281e-07, No Iterations 1
DICPCG:  Solving for p, Initial residual = 0.000980244, Final residual = 4.77543e-05, No Iterations 63
time step continuity errors : sum local = 1.146e-10, global = -2.38275e-20, cumulative = -6.74925e-17
DICPCG:  Solving for p, Initial residual = 0.000489031, Final residual = 9.46134e-07, No Iterations 294
time step continuity errors : sum local = 2.24996e-12, global = -1.24227e-20, cumulative = -6.75049e-17
DICPCG:  Solving for psi, Initial residual = 4.29692e-06, Final residual = 9.84979e-07, No Iterations 42
ExecutionTime = 486.89 s  ClockTime = 488 s

Time = 19.83

Courant Number mean: 0.0636322 max: 0.123667
smoothSolver:  Solving for Ux, Initial residual = 9.98365e-05, Final residual = 5.24955e-07, No Iterations 1
smoothSolver:  Solving for Uy, Initial residual = 0.000102184, Final residual = 4.88086e-07, No Iterations 1
DICPCG:  Solving for p, Initial residual = 0.00097991, Final residual = 4.68379e-05, No Iterations 63
time step continuity errors : sum local = 1.12404e-10, global = -2.272e-20, cumulative = -6.75276e-17
DICPCG:  Solving for p, Initial residual = 0.000488828, Final residual = 9.9969e-07, No Iterations 293
time step continuity errors : sum local = 2.37752e-12, global = -1.03983e-20, cumulative = -6.7538e-17
DICPCG:  Solving for psi, Initial residual = 4.39979e-06, Final residual = 9.5376e-07, No Iterations 41
ExecutionTime = 487.14 s  ClockTime = 488 s

Time = 19.84

Courant Number mean: 0.0636313 max: 0.123683
smoothSolver:  Solving for Ux, Initial residual = 9.9744e-05, Final residual = 5.24427e-07, No Iterations 1
smoothSolver:  Solving for Uy, Initial residual = 0.00010213, Final residual = 4.8789e-07, No Iterations 1
DICPCG:  Solving for p, Initial residual = 0.000979229, Final residual = 4.76294e-05, No Iterations 63
time step continuity errors : sum local = 1.14265e-10, global = -2.13565e-20, cumulative = -6.75594e-17
DICPCG:  Solving for p, Initial residual = 0.000488607, Final residual = 9.88404e-07, No Iterations 293
time step continuity errors : sum local = 2.35025e-12, global = -2.01014e-20, cumulative = -6.75795e-17
DICPCG:  Solving for psi, Initial residual = 4.35136e-06, Final residual = 9.74964e-07, No Iterations 42
ExecutionTime = 487.39 s  ClockTime = 488 s

Time = 19.85

Courant Number mean: 0.0636303 max: 0.123698
smoothSolver:  Solving for Ux, Initial residual = 9.96521e-05, Final residual = 5.23899e-07, No Iterations 1
smoothSolver:  Solving for Uy, Initial residual = 0.000102075, Final residual = 4.87694e-07, No Iterations 1
DICPCG:  Solving for p, Initial residual = 0.000978772, Final residual = 4.75926e-05, No Iterations 63
time step continuity errors : sum local = 1.14159e-10, global = -3.7954e-20, cumulative = -6.76174e-17
DICPCG:  Solving for p, Initial residual = 0.000488401, Final residual = 9.92242e-07, No Iterations 293
time step continuity errors : sum local = 2.35898e-12, global = -2.02028e-20, cumulative = -6.76376e-17
DICPCG:  Solving for psi, Initial residual = 4.33606e-06, Final residual = 8.31354e-07, No Iterations 43
ExecutionTime = 487.65 s  ClockTime = 488 s

Time = 19.86

Courant Number mean: 0.0636293 max: 0.123714
smoothSolver:  Solving for Ux, Initial residual = 9.95604e-05, Final residual = 5.23372e-07, No Iterations 1
smoothSolver:  Solving for Uy, Initial residual = 0.000102021, Final residual = 4.87496e-07, No Iterations 1
DICPCG:  Solving for p, Initial residual = 0.000978174, Final residual = 4.74857e-05, No Iterations 63
time step continuity errors : sum local = 1.13887e-10, global = -1.21551e-20, cumulative = -6.76498e-17
DICPCG:  Solving for p, Initial residual = 0.000488233, Final residual = 9.8465e-07, No Iterations 293
time step continuity errors : sum local = 2.34071e-12, global = -1.04824e-20, cumulative = -6.76603e-17
DICPCG:  Solving for psi, Initial residual = 4.2689e-06, Final residual = 8.86881e-07, No Iterations 42
ExecutionTime = 487.89 s  ClockTime = 489 s

Time = 19.87

Courant Number mean: 0.0636284 max: 0.123729
smoothSolver:  Solving for Ux, Initial residual = 9.9469e-05, Final residual = 5.22846e-07, No Iterations 1
smoothSolver:  Solving for Uy, Initial residual = 0.000101967, Final residual = 4.87297e-07, No Iterations 1
DICPCG:  Solving for p, Initial residual = 0.000977706, Final residual = 4.73715e-05, No Iterations 63
time step continuity errors : sum local = 1.13597e-10, global = -2.55295e-20, cumulative = -6.76858e-17
DICPCG:  Solving for p, Initial residual = 0.000488021, Final residual = 9.8217e-07, No Iterations 293
time step continuity errors : sum local = 2.33446e-12, global = -3.1249e-20, cumulative = -6.7717e-17
DICPCG:  Solving for psi, Initial residual = 4.27267e-06, Final residual = 9.46161e-07, No Iterations 42
ExecutionTime = 488.13 s  ClockTime = 489 s

Time = 19.88

Courant Number mean: 0.0636274 max: 0.123744
smoothSolver:  Solving for Ux, Initial residual = 9.93774e-05, Final residual = 5.22319e-07, No Iterations 1
smoothSolver:  Solving for Uy, Initial residual = 0.000101913, Final residual = 4.87098e-07, No Iterations 1
DICPCG:  Solving for p, Initial residual = 0.000977427, Final residual = 4.72876e-05, No Iterations 63
time step continuity errors : sum local = 1.1338e-10, global = -2.94202e-20, cumulative = -6.77465e-17
DICPCG:  Solving for p, Initial residual = 0.000487834, Final residual = 9.8146e-07, No Iterations 293
time step continuity errors : sum local = 2.33275e-12, global = -2.39976e-20, cumulative = -6.77705e-17
DICPCG:  Solving for psi, Initial residual = 4.3534e-06, Final residual = 8.79704e-07, No Iterations 42
ExecutionTime = 488.38 s  ClockTime = 489 s

Time = 19.89

Courant Number mean: 0.0636264 max: 0.123759
smoothSolver:  Solving for Ux, Initial residual = 9.92858e-05, Final residual = 5.21791e-07, No Iterations 1
smoothSolver:  Solving for Uy, Initial residual = 0.000101859, Final residual = 4.86902e-07, No Iterations 1
DICPCG:  Solving for p, Initial residual = 0.000977534, Final residual = 4.72367e-05, No Iterations 63
time step continuity errors : sum local = 1.13241e-10, global = -3.01325e-20, cumulative = -6.78006e-17
DICPCG:  Solving for p, Initial residual = 0.000487658, Final residual = 9.38531e-07, No Iterations 292
time step continuity errors : sum local = 2.23122e-12, global = -3.65446e-20, cumulative = -6.78371e-17
DICPCG:  Solving for psi, Initial residual = 4.2839e-06, Final residual = 9.58008e-07, No Iterations 43
ExecutionTime = 488.64 s  ClockTime = 489 s

Time = 19.9

Courant Number mean: 0.0636254 max: 0.123774
smoothSolver:  Solving for Ux, Initial residual = 9.91947e-05, Final residual = 5.21261e-07, No Iterations 1
smoothSolver:  Solving for Uy, Initial residual = 0.000101805, Final residual = 4.86707e-07, No Iterations 1
DICPCG:  Solving for p, Initial residual = 0.000977162, Final residual = 4.88388e-05, No Iterations 62
time step continuity errors : sum local = 1.1702e-10, global = -1.99997e-20, cumulative = -6.78571e-17
DICPCG:  Solving for p, Initial residual = 0.000487793, Final residual = 9.7821e-07, No Iterations 293
time step continuity errors : sum local = 2.32439e-12, global = -2.55693e-20, cumulative = -6.78827e-17
DICPCG:  Solving for psi, Initial residual = 4.29084e-06, Final residual = 8.88515e-07, No Iterations 43
ExecutionTime = 488.91 s  ClockTime = 490 s

Time = 19.91

Courant Number mean: 0.0636245 max: 0.123789
smoothSolver:  Solving for Ux, Initial residual = 9.91035e-05, Final residual = 5.20734e-07, No Iterations 1
smoothSolver:  Solving for Uy, Initial residual = 0.000101751, Final residual = 4.86511e-07, No Iterations 1
DICPCG:  Solving for p, Initial residual = 0.000979071, Final residual = 4.75294e-05, No Iterations 63
time step continuity errors : sum local = 1.13898e-10, global = -1.91048e-20, cumulative = -6.79018e-17
DICPCG:  Solving for p, Initial residual = 0.000487481, Final residual = 9.80767e-07, No Iterations 292
time step continuity errors : sum local = 2.3307e-12, global = -2.53392e-20, cumulative = -6.79271e-17
DICPCG:  Solving for psi, Initial residual = 4.30741e-06, Final residual = 9.71501e-07, No Iterations 41
ExecutionTime = 489.15 s  ClockTime = 490 s

Time = 19.92

Courant Number mean: 0.0636235 max: 0.123804
smoothSolver:  Solving for Ux, Initial residual = 9.90124e-05, Final residual = 5.20213e-07, No Iterations 1
smoothSolver:  Solving for Uy, Initial residual = 0.000101698, Final residual = 4.86314e-07, No Iterations 1
DICPCG:  Solving for p, Initial residual = 0.000977062, Final residual = 4.73924e-05, No Iterations 63
time step continuity errors : sum local = 1.13555e-10, global = -3.09858e-20, cumulative = -6.79581e-17
DICPCG:  Solving for p, Initial residual = 0.000487463, Final residual = 9.27733e-07, No Iterations 292
time step continuity errors : sum local = 2.20481e-12, global = -1.46239e-20, cumulative = -6.79728e-17
DICPCG:  Solving for psi, Initial residual = 4.33571e-06, Final residual = 9.93823e-07, No Iterations 42
ExecutionTime = 489.39 s  ClockTime = 490 s

Time = 19.93

Courant Number mean: 0.0636225 max: 0.123819
smoothSolver:  Solving for Ux, Initial residual = 9.89215e-05, Final residual = 5.19692e-07, No Iterations 1
smoothSolver:  Solving for Uy, Initial residual = 0.000101644, Final residual = 4.86117e-07, No Iterations 1
DICPCG:  Solving for p, Initial residual = 0.000974745, Final residual = 4.83038e-05, No Iterations 62
time step continuity errors : sum local = 1.15695e-10, global = -1.96674e-20, cumulative = -6.79924e-17
DICPCG:  Solving for p, Initial residual = 0.000487139, Final residual = 9.90012e-07, No Iterations 292
time step continuity errors : sum local = 2.35192e-12, global = -3.2414e-20, cumulative = -6.80248e-17
DICPCG:  Solving for psi, Initial residual = 4.31607e-06, Final residual = 9.99379e-07, No Iterations 42
ExecutionTime = 489.64 s  ClockTime = 490 s

Time = 19.94

Courant Number mean: 0.0636215 max: 0.123833
smoothSolver:  Solving for Ux, Initial residual = 9.88307e-05, Final residual = 5.19169e-07, No Iterations 1
smoothSolver:  Solving for Uy, Initial residual = 0.000101591, Final residual = 4.85918e-07, No Iterations 1
DICPCG:  Solving for p, Initial residual = 0.000974076, Final residual = 4.85481e-05, No Iterations 62
time step continuity errors : sum local = 1.16255e-10, global = -4.802e-20, cumulative = -6.80729e-17
DICPCG:  Solving for p, Initial residual = 0.000486806, Final residual = 9.84494e-07, No Iterations 292
time step continuity errors : sum local = 2.33861e-12, global = -5.31295e-20, cumulative = -6.8126e-17
DICPCG:  Solving for psi, Initial residual = 4.37021e-06, Final residual = 9.0377e-07, No Iterations 42
ExecutionTime = 489.9 s  ClockTime = 491 s

Time = 19.95

Courant Number mean: 0.0636205 max: 0.123847
smoothSolver:  Solving for Ux, Initial residual = 9.87399e-05, Final residual = 5.18647e-07, No Iterations 1
smoothSolver:  Solving for Uy, Initial residual = 0.000101537, Final residual = 4.85719e-07, No Iterations 1
DICPCG:  Solving for p, Initial residual = 0.000973789, Final residual = 4.84685e-05, No Iterations 62
time step continuity errors : sum local = 1.16048e-10, global = -1.2512e-20, cumulative = -6.81385e-17
DICPCG:  Solving for p, Initial residual = 0.000486584, Final residual = 9.82526e-07, No Iterations 292
time step continuity errors : sum local = 2.33357e-12, global = -1.52649e-20, cumulative = -6.81538e-17
DICPCG:  Solving for psi, Initial residual = 4.29458e-06, Final residual = 9.63443e-07, No Iterations 41
ExecutionTime = 490.13 s  ClockTime = 491 s

Time = 19.96

Courant Number mean: 0.0636195 max: 0.123862
smoothSolver:  Solving for Ux, Initial residual = 9.86492e-05, Final residual = 5.18124e-07, No Iterations 1
smoothSolver:  Solving for Uy, Initial residual = 0.000101483, Final residual = 4.85519e-07, No Iterations 1
DICPCG:  Solving for p, Initial residual = 0.000973379, Final residual = 4.83866e-05, No Iterations 62
time step continuity errors : sum local = 1.15836e-10, global = -1.25636e-20, cumulative = -6.81663e-17
DICPCG:  Solving for p, Initial residual = 0.000486395, Final residual = 9.92975e-07, No Iterations 291
time step continuity errors : sum local = 2.35914e-12, global = -1.72164e-20, cumulative = -6.81835e-17
DICPCG:  Solving for psi, Initial residual = 4.27687e-06, Final residual = 9.72202e-07, No Iterations 41
ExecutionTime = 490.38 s  ClockTime = 491 s

Time = 19.97

Courant Number mean: 0.0636186 max: 0.123876
smoothSolver:  Solving for Ux, Initial residual = 9.85584e-05, Final residual = 5.176e-07, No Iterations 1
smoothSolver:  Solving for Uy, Initial residual = 0.000101429, Final residual = 4.85318e-07, No Iterations 1
DICPCG:  Solving for p, Initial residual = 0.000975559, Final residual = 4.85993e-05, No Iterations 62
time step continuity errors : sum local = 1.16322e-10, global = -1.40488e-20, cumulative = -6.81976e-17
DICPCG:  Solving for p, Initial residual = 0.000486561, Final residual = 9.79606e-07, No Iterations 292
time step continuity errors : sum local = 2.32602e-12, global = -4.58638e-20, cumulative = -6.82435e-17
DICPCG:  Solving for psi, Initial residual = 4.34815e-06, Final residual = 9.28325e-07, No Iterations 41
ExecutionTime = 490.62 s  ClockTime = 491 s

Time = 19.98

Courant Number mean: 0.0636176 max: 0.12389
smoothSolver:  Solving for Ux, Initial residual = 9.84675e-05, Final residual = 5.17075e-07, No Iterations 1
smoothSolver:  Solving for Uy, Initial residual = 0.000101375, Final residual = 4.85121e-07, No Iterations 1
DICPCG:  Solving for p, Initial residual = 0.000975259, Final residual = 4.8497e-05, No Iterations 62
time step continuity errors : sum local = 1.1606e-10, global = -1.74171e-20, cumulative = -6.82609e-17
DICPCG:  Solving for p, Initial residual = 0.000486294, Final residual = 9.92864e-07, No Iterations 292
time step continuity errors : sum local = 2.3575e-12, global = -2.37063e-20, cumulative = -6.82846e-17
DICPCG:  Solving for psi, Initial residual = 4.27275e-06, Final residual = 9.55168e-07, No Iterations 42
ExecutionTime = 490.86 s  ClockTime = 492 s

Time = 19.99

Courant Number mean: 0.0636166 max: 0.123904
smoothSolver:  Solving for Ux, Initial residual = 9.83766e-05, Final residual = 5.16548e-07, No Iterations 1
smoothSolver:  Solving for Uy, Initial residual = 0.000101322, Final residual = 4.84933e-07, No Iterations 1
DICPCG:  Solving for p, Initial residual = 0.000974332, Final residual = 4.77712e-05, No Iterations 62
time step continuity errors : sum local = 1.14323e-10, global = -1.74458e-20, cumulative = -6.8302e-17
DICPCG:  Solving for p, Initial residual = 0.000485544, Final residual = 9.62531e-07, No Iterations 292
time step continuity errors : sum local = 2.28497e-12, global = -2.07286e-20, cumulative = -6.83228e-17
DICPCG:  Solving for psi, Initial residual = 4.26012e-06, Final residual = 9.89735e-07, No Iterations 42
ExecutionTime = 491.1 s  ClockTime = 492 s

Time = 20

Courant Number mean: 0.0636156 max: 0.123918
smoothSolver:  Solving for Ux, Initial residual = 9.82856e-05, Final residual = 5.1602e-07, No Iterations 1
smoothSolver:  Solving for Uy, Initial residual = 0.000101268, Final residual = 4.84744e-07, No Iterations 1
DICPCG:  Solving for p, Initial residual = 0.000973405, Final residual = 4.82356e-05, No Iterations 62
time step continuity errors : sum local = 1.15405e-10, global = -3.11484e-20, cumulative = -6.83539e-17
DICPCG:  Solving for p, Initial residual = 0.000485666, Final residual = 9.8243e-07, No Iterations 291
time step continuity errors : sum local = 2.33291e-12, global = -3.40084e-20, cumulative = -6.83879e-17
DICPCG:  Solving for psi, Initial residual = 4.33163e-06, Final residual = 8.90773e-07, No Iterations 42
ExecutionTime = 491.5 s  ClockTime = 492 s

End

Finalising parallel run
